geometry optimzed in LAMMPS
_audit_creation_date              2020-11-30 
_audit_creation_method            'lammps2cif' 
_symmetry_space_group_name_H-M    'P1' 
_symmetry_Int_Tables_number       1 
_symmetry_cell_setting            triclinic 
loop_ 
_symmetry_equiv_pos_as_xyz 
  x,y,z 
_cell_length_a                    49.644989979161906 
_cell_length_b                    49.69508145621891 
_cell_length_c                    62.06346802363362 
_cell_angle_alpha                 90.19282557438964 
_cell_angle_beta                  89.71769565262865 
_cell_angle_gamma                 120.01306847580723 
loop_ 
_atom_site_label 
_atom_site_type_symbol 
_atom_site_fract_x 
_atom_site_fract_y 
_atom_site_fract_z 
_atom_site_charge 
C1          C  0.25331015  0.24881029  0.06946057    -0.02110
C2          C  0.48683582  0.24800936  0.06959591    -0.02110
C3          C  0.25655404  0.01650921  0.06933484    -0.02110
O4          O  0.12011200  0.29338354  0.01783783    -0.81420
C5          C  0.19757072  0.39550053  0.96328574     0.97940
O6          O  0.17489645  0.39208274  0.97466922    -0.70530
O7          O  0.12187401  0.33972506  0.96768985    -0.74120
Al8        Al  0.14553588  0.35951051  0.99295856     1.48980
C9          C  0.10663914  0.31087790  0.96394086     0.93190
O10         O  0.16419006  0.29257990  0.96779006    -0.80350
O11         O  0.20933422  0.33819522  0.01880161    -0.73900
Al12       Al  0.14385857  0.29611049  0.99289572     1.90120
O13         O  0.21157021  0.32813635  0.97583910    -0.72970
O14         O  0.21284421  0.39188863  0.00961569    -0.72820
O15         O  0.20973986  0.37880730  0.96644272    -0.78480
O16         O  0.16619073  0.38228415  0.01839496    -0.76690
O17         O  0.16535209  0.33761302  0.99289527    -1.12820
O18         O  0.11184115  0.33173222  0.01087036    -0.72010
C19         C  0.10462926  0.30691750  0.02078802     0.98700
C20         C  0.19314882  0.30478697  0.96496897     0.95100
Al21       Al  0.20704415  0.35750033  0.99271901     1.55560
O22         O  0.11193519  0.29228507  0.97433040    -0.76640
C23         C  0.19533171  0.39808817  0.02072014     0.99270
C24         C  0.19551261  0.30918167  0.02207278     0.94150
O25         O  0.17147533  0.29121797  0.01144156    -0.81960
C26         C  0.14612366  0.13351968  0.16438970     0.03510
C27         C  0.16603313  0.15605865  0.14932088    -0.12640
C28         C  0.17622134  0.14772003  0.13067052     0.01010
C29         C  0.16978352  0.11700557  0.12849517    -0.11160
C30         C  0.15366056  0.09454828  0.14463366     0.03500
C31         C  0.13913044  0.10255196  0.16106474    -0.10580
H32         H  0.17393078  0.18037244  0.15173152     0.09100
H33         H  0.17754070  0.11121860  0.11395684     0.06630
H34         H  0.12182753  0.08452482  0.17099954     0.06470
C35         C  0.17659818  0.03322154  0.13175487     0.03510
C36         C  0.16978704  0.05707747  0.12907928    -0.12640
C37         C  0.15460773  0.06450284  0.14545483     0.01010
C38         C  0.14397756  0.04480115  0.16384508    -0.11160
C39         C  0.15000633  0.02008563  0.16635640     0.03500
C40         C  0.16702540  0.51525820  0.15036236    -0.10580
H41         H  0.17809158  0.07030178  0.11444706     0.09100
H42         H  0.13105528  0.04830207  0.17640769     0.06630
H43         H  0.17309480  0.49730458  0.15229452     0.06470
C44         C  0.46550389  0.32036048  0.13588105     0.03510
C45         C  0.98496577  0.33265730  0.15387283    -0.12640
C46         C  0.47675537  0.34584779  0.17081601     0.01010
C47         C  0.44845358  0.34554458  0.17021318    -0.11160
C48         C  0.42900917  0.33476209  0.15187301     0.03500
C49         C  0.43850237  0.32276761  0.13467679    -0.10580
H50         H  0.00653213  0.33223363  0.15473998     0.09100
H51         H  0.44288488  0.35490696  0.18410684     0.06630
H52         H  0.42540695  0.31541527  0.11991212     0.06470
C53         C  0.34995021  0.32320012  0.13321428     0.03510
C54         C  0.37697801  0.32087206  0.13429695    -0.12640
C55         C  0.39969423  0.33679992  0.15043090     0.01010
C56         C  0.39386016  0.35471126  0.16541856    -0.11160
C57         C  0.36621230  0.35573062  0.16507489     0.03500
C58         C  0.34466704  0.34048889  0.14874076    -0.10580
H59         H  0.37914649  0.30570061  0.12283173     0.09100
H60         H  0.41040779  0.36815560  0.17772209     0.06630
H61         H  0.32373770  0.34216677  0.14805152     0.06470
C62         C  0.34555473  0.42853713  0.23076047    -0.02110
C63         C  0.07690443  0.16168641  0.23074486    -0.02110
C64         C  0.07643223  0.42647833  0.23017399    -0.02110
O65         O  0.12033148  0.28686208  0.28791143    -0.81420
C66         C  0.22448300  0.36510164  0.33645508     0.97940
O67         O  0.20803426  0.33629671  0.33293343    -0.70530
O68         O  0.15727374  0.28451802  0.32380914    -0.74120
Al69       Al  0.18666873  0.31742334  0.30674764     1.48980
C70         C  0.13374436  0.27970879  0.33449046     0.93190
O71         O  0.12156433  0.34849017  0.32443698    -0.80350
O72         O  0.16149325  0.38708189  0.28895445    -0.73900
Al73       Al  0.12527308  0.31966507  0.30606624     1.90120
O74         O  0.16943056  0.38398432  0.33209137    -0.72970
O75         O  0.21174709  0.38285204  0.28121766    -0.72820
O76         O  0.22152948  0.38418600  0.32479559    -0.78480
O77         O  0.22112627  0.34565957  0.28976159    -0.76690
O78         O  0.16690702  0.33923314  0.30643205    -1.12820
O79         O  0.16723301  0.29525711  0.28089668    -0.72010
C80         C  0.13818648  0.28016668  0.27767708     0.98700
C81         C  0.14055685  0.37162201  0.33542133     0.95100
Al82       Al  0.18904701  0.38077924  0.30665799     1.55560
O83         O  0.12070582  0.29557075  0.33123878    -0.76640
C84         C  0.22764839  0.36959417  0.27896540     0.99270
C85         C  0.13728378  0.36979126  0.27834079     0.94150
O86         O  0.12361153  0.34068817  0.28075031    -0.81960
C87         C  0.46559774  0.15350927  0.13451327     0.03510
C88         C  0.48038044  0.16313505  0.15452058    -0.12640
C89         C  0.47746216  0.14129487  0.16994998     0.01010
C90         C  0.45393439  0.11018344  0.16729091    -0.11160
C91         C  0.43641730  0.10016947  0.14803608     0.03500
C92         C  0.44556083  0.12169072  0.13102696    -0.10580
H93         H  0.99534089  0.18760951  0.15785368     0.09100
H94         H  0.45003941  0.09417403  0.18019176     0.06630
H95         H  0.43696530  0.11401344  0.11496930     0.06470
C96         C  0.36837192  0.02120446  0.16429479     0.03510
C97         C  0.34616181  0.01804172  0.14904263    -0.12640
C98         C  0.35473862  0.03758293  0.13104910     0.01010
C99         C  0.38490457  0.06337331  0.13014904    -0.11160
C100        C  0.40706559  0.06905415  0.14632142     0.03500
C101        C  0.39903227  0.04611360  0.16218474    -0.10580
H102        H  0.32196269  0.50065315  0.15123233     0.09100
H103        H  0.39037310  0.07920365  0.11691913     0.06630
H104        H  0.41648528  0.04757997  0.17313024     0.06470
C105        C  0.41432767  0.32737722  0.56500090    -0.02110
C106        C  0.40792447  0.09346876  0.56333899    -0.02110
C107        C  0.17902287  0.09934314  0.56372723    -0.02110
O108        O  0.49322653  0.05545974  0.62293432    -0.81420
C109        C  0.46914145  0.45042801  0.66734525     0.97940
O110        O  0.45606934  0.46627594  0.66398343    -0.70530
O111        O  0.45255357  0.01629659  0.65538815    -0.74120
Al112      Al  0.45866486  0.48796737  0.63826568     1.48980
C113        C  0.47030741  0.03698030  0.66830784     0.93190
O114        O  0.05211725  0.05202503  0.66035296    -0.80350
O115        O  0.05331786  0.01591826  0.61892686    -0.73900
Al116      Al  0.02101029  0.04955586  0.64135381     1.90120
O117        O  0.04400281  0.00458574  0.66238315    -0.72970
O118        O  0.49965512  0.46505559  0.61156116    -0.72820
O119        O  0.49148561  0.45373185  0.65549429    -0.78480
O120        O  0.45297404  0.45363119  0.62130905    -0.76690
O121        O  0.50032718  0.00823776  0.63874133    -1.12820
O122        O  0.45776659  0.00846597  0.61267276    -0.72010
C123        C  0.47015830  0.03772598  0.61120838     0.98700
C124        C  0.05720855  0.03216658  0.66906644     0.95100
Al125      Al  0.02039168  0.48677003  0.63711747     1.55560
O126        O  0.49927059  0.04889494  0.66677543    -0.76640
C127        C  0.47061673  0.44770259  0.61021266     0.99270
C128        C  0.06079149  0.04225531  0.61125180     0.94150
O129        O  0.04656992  0.05629066  0.61675503    -0.81960
C130        C  0.19979356  0.02223603  0.50232201     0.03510
C131        C  0.17695312  0.50773175  0.48651747    -0.12640
C132        C  0.18300584  0.49480854  0.46834426     0.01010
C133        C  0.21239611  0.49768499  0.46560257    -0.11160
C134        C  0.23541233  0.01107451  0.48165621     0.03500
C135        C  0.22819898  0.02280767  0.50022713    -0.10580
H136        H  0.15467592  0.50658851  0.48830023     0.09100
H137        H  0.21642907  0.48882712  0.45079659     0.06630
H138        H  0.24426818  0.03265192  0.51345780     0.06470
C139        C  0.29802173  0.99195726  0.46359633     0.03510
C140        C  0.31979028  0.00582360  0.48015816    -0.12640
C141        C  0.31581495  0.02379221  0.49609948     0.01010
C142        C  0.29039351  0.02873083  0.49416446    -0.11160
C143        C  0.26588202  0.01137416  0.47968927     0.03500
C144        C  0.27049480  0.99324841  0.46415809    -0.10580
H145        H  0.33916496  0.00165639  0.48068377     0.09100
H146        H  0.28997936  0.04631473  0.50408719     0.06630
H147        H  0.25309814  0.47974879  0.45230148     0.06470
C148        C  0.01232591  0.20259688  0.46544227     0.03510
C149        C  0.49214811  0.17905218  0.47963628    -0.12640
C150        C  0.47605442  0.18508244  0.49569388     0.01010
C151        C  0.47637630  0.21340053  0.49562648    -0.11160
C152        C  0.49584822  0.23756268  0.48145826     0.03500
C153        C  0.01503746  0.23218729  0.46738920    -0.10580
H154        H  0.48839021  0.15575108  0.47838562     0.09100
H155        H  0.46166428  0.21616197  0.50714634     0.06630
H156        H  0.03274802  0.25138088  0.45826615     0.06470
C157        C  0.49316597  0.30875587  0.50257145     0.03510
C158        C  0.48804565  0.27840695  0.50051407    -0.12640
C159        C  0.99808607  0.26893566  0.48228741     0.01010
C160        C  0.01040798  0.28988792  0.46487246    -0.11160
C161        C  0.01784830  0.32116463  0.46702581     0.03500
C162        C  0.01117562  0.33054667  0.48677894    -0.10580
H163        H  0.47588406  0.26215539  0.51314533     0.09100
H164        H  0.01408243  0.28172944  0.44961493     0.06630
H165        H  0.01977238  0.35483504  0.48998567     0.06470
C166        C  0.32143597  0.30247227  0.49784902     0.03510
C167        C  0.29169749  0.27589458  0.49820224    -0.12640
C168        C  0.26924827  0.27049559  0.48219507     0.01010
C169        C  0.27839187  0.29305048  0.46555365    -0.11160
C170        C  0.30828464  0.31938800  0.46496707     0.03500
C171        C  0.32958444  0.32386346  0.48109191    -0.10580
H172        H  0.28663054  0.26025606  0.51150797     0.09100
H173        H  0.26245748  0.29168895  0.45332128     0.06630
H174        H  0.35246620  0.34447493  0.48077630     0.06470
C175        C  0.19639935  0.19491021  0.50147798     0.03510
C176        C  0.22640723  0.22122373  0.50085879    -0.12640
C177        C  0.23657003  0.24236680  0.48323966     0.01010
C178        C  0.21500200  0.23579851  0.46636373    -0.11160
C179        C  0.18478783  0.21008413  0.46719413     0.03500
C180        C  0.17568914  0.18995277  0.48476084    -0.10580
H181        H  0.24152737  0.22391105  0.51404441     0.09100
H182        H  0.22113021  0.24977990  0.45202021     0.06630
H183        H  0.15234596  0.17005207  0.48531779     0.06470
C184        C  0.09091222  0.41851804  0.40284718    -0.02110
C185        C  0.09012274  0.18408589  0.40140592    -0.02110
C186        C  0.32104993  0.41436708  0.40386618    -0.02110
O187        O  0.04803792  0.99871654  0.34145595    -0.81420
C188        C  0.43984473  0.47263323  0.29935718     0.97940
O189        O  0.45667869  0.46053148  0.30217266    -0.70530
O190        O  0.00830930  0.45934335  0.30879528    -0.74120
Al191      Al  0.48003958  0.46399774  0.32715655     1.48980
C192        C  0.02916009  0.47767981  0.29601621     0.93190
O193        O  0.04383146  0.05966653  0.30721051    -0.80350
O194        O  0.00728210  0.05885347  0.34508017    -0.73900
Al195      Al  0.04114563  0.02694596  0.32448795     1.90120
O196        O  0.99553431  0.04745902  0.30150855    -0.72970
O197        O  0.45640925  0.50498126  0.35418100    -0.72820
O198        O  0.44379017  0.99550011  0.31065662    -0.78480
O199        O  0.44664894  0.45832498  0.34526922    -0.76690
O200        O  0.99964456  0.00545659  0.32669217    -1.12820
O201        O  0.00163588  0.46296899  0.35212761    -0.72010
C202        C  0.03091310  0.47534809  0.35300793     0.98700
C203        C  0.02414590  0.06350778  0.29707890     0.95100
Al204      Al  0.47776531  0.02507684  0.32783360     1.55560
O205        O  0.04109595  0.00666060  0.29819611    -0.76640
C206        C  0.44026543  0.47580073  0.35620201     0.99270
C207        C  0.03270720  0.06572442  0.35409934     0.94150
O208        O  0.04633502  0.05051537  0.35004054    -0.81960
C209        C  0.42105612  0.35206694  0.73346662    -0.02110
C210        C  0.15338657  0.07867199  0.73585292    -0.02110
C211        C  0.42255897  0.08559857  0.73574478    -0.02110
O212        O  0.28832197  0.12949974  0.68705889    -0.81420
C213        C  0.36478346  0.23151176  0.63202590     0.97940
O214        O  0.34135163  0.22683286  0.64284826    -0.70530
O215        O  0.29211930  0.17351909  0.63344858    -0.74120
Al216      Al  0.31176013  0.19287460  0.65970257     1.49160
C217        C  0.27572169  0.14456329  0.63049255     0.93190
O218        O  0.33103048  0.12558195  0.63701426    -0.80350
O219        O  0.37708239  0.17386768  0.68611138    -0.73900
Al220      Al  0.31106951  0.13045662  0.66179500     1.90120
O221        O  0.37845867  0.16395687  0.64277051    -0.72970
O222        O  0.37772650  0.22635770  0.67816262    -0.72820
O223        O  0.37734573  0.21524132  0.63503214    -0.78480
O224        O  0.32973342  0.21464772  0.68588575    -0.76690
O225        O  0.33241897  0.17203557  0.66069737    -1.12820
O226        O  0.27657863  0.16407479  0.67601889    -0.72010
C227        C  0.27112681  0.14140681  0.68787393     0.98700
C228        C  0.35977863  0.13940770  0.63284313     0.95100
Al229      Al  0.37398721  0.19291017  0.66063605     1.55560
O230        O  0.27836176  0.12573181  0.64279444    -0.76640
C231        C  0.35873901  0.23166172  0.68836788     0.99270
C232        C  0.36376252  0.14517524  0.68997479     0.94150
O233        O  0.33907598  0.12637430  0.68038846    -0.81960
C234        C  0.31680584  0.47274642  0.83238917     0.03510
C235        C  0.31640253  0.44439374  0.83210077    -0.12640
C236        C  0.33034463  0.43661495  0.81501067     0.01010
C237        C  0.34666583  0.45967749  0.79912000    -0.11160
C238        C  0.34707592  0.98812856  0.79924795     0.03500
C239        C  0.33158214  0.99410329  0.81580739    -0.10580
H240        H  0.30462793  0.42883583  0.84531001     0.09100
H241        H  0.36014851  0.45665918  0.78677151     0.06630
H242        H  0.33083184  0.01552059  0.81588234     0.06470
C243        C  0.34674416  0.37164619  0.79881690     0.03510
C244        C  0.34427805  0.39834997  0.79782827    -0.12640
C245        C  0.32924693  0.40558263  0.81432876     0.01010
C246        C  0.31347421  0.38270184  0.83035432    -0.11160
C247        C  0.31751773  0.35667768  0.83249301     0.03500
C248        C  0.33522250  0.35207825  0.81666221    -0.10580
H249        H  0.35481271  0.41311170  0.78406044     0.09100
H250        H  0.29721362  0.38438028  0.84088107     0.06630
H251        H  0.34023964  0.33333227  0.81784931     0.06470
C252        C  0.14562712  0.47028780  0.83295900     0.03510
C253        C  0.15471408  0.48952847  0.81451182    -0.12640
C254        C  0.13477521  0.48130145  0.79667438     0.01010
C255        C  0.10732645  0.45257776  0.79640455    -0.11160
C256        C  0.09712443  0.43377123  0.81479772     0.03500
C257        C  0.11578951  0.44375350  0.83330036    -0.10580
H258        H  0.17675225  0.01104492  0.81402954     0.09100
H259        H  0.09346262  0.44571998  0.78187863     0.06630
H260        H  0.10697500  0.43082640  0.84811466     0.06470
C261        C  0.01557057  0.37094018  0.79879997     0.03510
C262        C  0.04258095  0.40011264  0.80130966    -0.12640
C263        C  0.06689774  0.40402803  0.81474054     0.01010
C264        C  0.06230588  0.37927208  0.82789637    -0.11160
C265        C  0.03273307  0.35287273  0.83001228     0.03500
C266        C  0.50969914  0.34867908  0.81499919    -0.10580
H267        H  0.04481779  0.42030826  0.79341252     0.09100
H268        H  0.08172603  0.38088376  0.83675923     0.06630
H269        H  0.48706897  0.32852776  0.81655796     0.06470
C270        C  0.13932648  0.16243220  0.79587509     0.03510
C271        C  0.11090321  0.16217455  0.79583779    -0.12640
C272        C  0.10438359  0.17893738  0.81152260     0.01010
C273        C  0.12713170  0.19543777  0.82726634    -0.11160
C274        C  0.15483076  0.19446842  0.82806387     0.03500
C275        C  0.16113404  0.17864917  0.81197882    -0.10580
H276        H  0.09373575  0.14773068  0.78405069     0.09100
H277        H  0.12356790  0.20898563  0.83933588     0.06630
H278        H  0.18297308  0.17866834  0.81202953     0.06470
C279        C  0.03503534  0.18655057  0.83123000     0.03510
C280        C  0.51517485  0.17487078  0.81348128    -0.12640
C281        C  0.52447632  0.16544017  0.79488020     0.01010
C282        C  0.05459715  0.16960702  0.79384125    -0.11160
C283        C  0.07377959  0.17835445  0.81210713     0.03500
C284        C  0.06317243  0.18631551  0.83092572    -0.10580
H285        H  0.49268972  0.17341142  0.81414030     0.09100
H286        H  0.06260651  0.16544403  0.77866453     0.06630
H287        H  0.07648285  0.19281579  0.84562050     0.06470
C288        C  0.24434511  0.26031874  0.89697184    -0.02110
C289        C  0.24190329  0.49411706  0.89678296    -0.02110
C290        C  0.01159429  0.25888553  0.89594404    -0.02110
O291        O  0.28560260  0.11836573  0.95693179    -0.81420
C292        C  0.39270411  0.19952105  0.00128617     0.97940
O293        O  0.37649184  0.17054806  0.99820826    -0.70530
O294        O  0.32415435  0.11802212  0.99099455    -0.74120
Al295      Al  0.35317297  0.15071387  0.97291403     1.48980
C296        C  0.30192942  0.11469882  0.00276508     0.93190
O297        O  0.28902402  0.18295161  0.99193275    -0.80350
O298        O  0.32654898  0.21894309  0.95496387    -0.73900
Al299      Al  0.29198527  0.15295169  0.97435739     1.90120
O300        O  0.33731057  0.21835299  0.99853284    -0.72970
O301        O  0.37746356  0.21562425  0.94655764    -0.72820
O302        O  0.38869725  0.21825155  0.98998050    -0.78480
O303        O  0.38673681  0.17835622  0.95502844    -0.76690
O304        O  0.33358715  0.17267272  0.97312076    -1.12820
O305        O  0.33224204  0.12813513  0.94757132    -0.72010
C306        C  0.30303449  0.11221858  0.94553565     0.98700
C307        C  0.30867034  0.20610120  0.00254309     0.95100
Al308      Al  0.35551185  0.21414503  0.97246774     1.55560
O309        O  0.29025435  0.13188394  0.00027183    -0.76640
C310        C  0.39332100  0.20229474  0.94420694     0.99270
C311        C  0.30152568  0.20053888  0.94540497     0.94150
O312        O  0.28814640  0.17170128  0.94887889    -0.81960
C313        C  0.45851999  0.25504757  0.90568332    -0.20920
C314        C  0.47889958  0.24279352  0.90684527    -0.08970
C315        C  0.46976769  0.21673192  0.92029618     0.29890
C316        C  0.44141037  0.20311572  0.93131984    -0.20920
C317        C  0.42134914  0.21538770  0.93004974    -0.08980
C318        C  0.43019097  0.24151122  0.91696393     0.29900
F319        F  0.41196660  0.25462098  0.91546743    -0.19500
H320        H  0.46460441  0.27588650  0.89666927     0.18260
H321        H  0.43571591  0.18334452  0.94155050     0.18270
F322        F  0.48851611  0.20444125  0.92307219    -0.19490
C323        C  0.25593293  0.06685430  0.92980626    -0.20920
C324        C  0.28845557  0.08485105  0.93081077    -0.08970
C325        C  0.30610979  0.07491202  0.91898428     0.29890
C326        C  0.29146439  0.04688587  0.90740258    -0.20920
C327        C  0.25868239  0.02715089  0.90768675    -0.08980
C328        C  0.24127296  0.03878503  0.91851981     0.29900
F329        F  0.20968565  0.02230558  0.91907266    -0.19500
H330        H  0.24148935  0.07395513  0.93842783     0.18260
H331        H  0.30653817  0.04097490  0.89864551     0.18270
F332        F  0.33766180  0.09179146  0.91896807    -0.19490
C333        C  0.24151803  0.21513787  0.91865214    -0.20920
C334        C  0.26016878  0.24355644  0.90779046    -0.08970
C335        C  0.29301345  0.25727495  0.90987082     0.29890
C336        C  0.30594165  0.24222111  0.92112206    -0.20920
C337        C  0.28712654  0.21356381  0.93111090    -0.08980
C338        C  0.25465155  0.19995150  0.92966805     0.29900
F339        F  0.23552871  0.17290359  0.94000404    -0.19500
H340        H  0.21644285  0.20467690  0.91868915     0.18260
H341        H  0.33101456  0.25368877  0.92266402     0.18270
F342        F  0.31320841  0.28629665  0.90267113    -0.19490
C343        C  0.05184269  0.23245918  0.85471068    -0.20920
C344        C  0.02855759  0.20249451  0.84904576    -0.08970
C345        C  0.49945463  0.18962919  0.85936201     0.29890
C346        C  0.49384920  0.20679860  0.87494458    -0.20920
C347        C  0.01722358  0.23725713  0.88066019    -0.08980
C348        C  0.04636041  0.24968996  0.86996738     0.29900
F349        F  0.06972110  0.27898944  0.87415672    -0.19500
H350        H  0.07427184  0.24312938  0.84669272     0.18260
H351        H  0.47069713  0.19644427  0.88166408     0.18270
F352        F  0.47636361  0.16057576  0.85430037    -0.19490
C353        C  0.18324979  0.23937516  0.85273987    -0.20920
C354        C  0.17691969  0.20994412  0.84594777    -0.08970
C355        C  0.19118958  0.19544266  0.85663488     0.29890
C356        C  0.21221930  0.21072015  0.87333787    -0.20920
C357        C  0.21872724  0.24044734  0.88034871    -0.08980
C358        C  0.20336488  0.25424703  0.86973098     0.29900
F359        F  0.20842455  0.28277438  0.87554165    -0.19500
H360        H  0.17289835  0.25126812  0.84466283     0.18260
H361        H  0.22403495  0.19941041  0.87995602     0.18270
F362        F  0.18470917  0.16637004  0.85106999    -0.19490
C363        C  0.50286657  0.29861956  0.84533375    -0.20920
C364        C  0.02622838  0.32985045  0.84765854    -0.08970
C365        C  0.04313146  0.33871429  0.86712554     0.29890
C366        C  0.03897365  0.31655021  0.88249005    -0.20920
C367        C  0.01541684  0.28516079  0.88036866    -0.08980
C368        C  0.49665956  0.27705590  0.86163788     0.29900
F369        F  0.47297438  0.24758270  0.85853641    -0.19500
H370        H  0.48940614  0.29022191  0.83072751     0.18260
H371        H  0.05526984  0.32471975  0.89558162     0.18270
F372        F  0.06371443  0.36889484  0.87173192    -0.19490
C373        C  0.18921694  0.00763817  0.85720891    -0.20920
C374        C  0.16704712  0.47702514  0.85165891    -0.08970
C375        C  0.16683340  0.45265725  0.86334213     0.29890
C376        C  0.18820257  0.45879460  0.87973485    -0.20920
C377        C  0.21233207  0.48923960  0.88438443    -0.08980
C378        C  0.21204801  0.01380958  0.87269684     0.29900
F379        F  0.23580330  0.04356670  0.87408185    -0.19500
H380        H  0.19011322  0.02705941  0.84872985     0.18260
H381        H  0.18668460  0.43878796  0.88748246     0.18270
F382        F  0.14778065  0.42244851  0.85785892    -0.19490
C383        C  0.29570027  0.30293532  0.84811223    -0.20920
C384        C  0.30235986  0.33379426  0.85058997    -0.08970
C385        C  0.29355356  0.34181218  0.87023691     0.29890
C386        C  0.27535761  0.31895097  0.88534718    -0.20920
C387        C  0.26796893  0.28778319  0.88259388    -0.08980
C388        C  0.28028343  0.28086050  0.86409910     0.29900
F389        F  0.27567097  0.25184121  0.86076150    -0.19500
H390        H  0.30146513  0.29502508  0.83350880     0.18260
H391        H  0.26662024  0.32622349  0.89870893     0.18270
F392        F  0.30244497  0.37170786  0.87522585    -0.19490
C393        C  0.30567180  0.47990970  0.87092847    -0.20920
C394        C  0.29926584  0.47921283  0.84888968    -0.08970
C395        C  0.27591647  0.48510764  0.84228953     0.29890
C396        C  0.25881836  0.49104255  0.85732974    -0.20920
C397        C  0.26391406  0.49111538  0.87985477    -0.08980
C398        C  0.28857066  0.48614061  0.88625401     0.29900
F399        F  0.29556065  0.48638822  0.90740401    -0.19500
H400        H  0.32398182  0.47569964  0.87625642     0.18260
H401        H  0.24117036  0.49488423  0.85054859     0.18270
F402        F  0.26882763  0.48415096  0.82107706    -0.19490
C403        C  0.38285949  0.02832009  0.74589556    -0.20920
C404        C  0.40092388  0.05994487  0.75216454    -0.08970
C405        C  0.39727404  0.06705797  0.77377569     0.29890
C406        C  0.38060588  0.04367034  0.78871487    -0.20920
C407        C  0.36469683  0.01233868  0.78265824    -0.08980
C408        C  0.36526112  0.00491428  0.76083961     0.29900
F409        F  0.34815752  0.47518993  0.75371647    -0.19500
H410        H  0.38186014  0.02144423  0.72923541     0.18260
H411        H  0.38026177  0.05041144  0.80527563     0.18270
F412        F  0.40893450  0.09646530  0.78094771    -0.19490
C413        C  0.47679467  0.10425361  0.75359953    -0.20920
C414        C  0.45257773  0.11030998  0.74836550    -0.08970
C415        C  0.45537043  0.13811082  0.75762598     0.29890
C416        C  0.47984402  0.15696443  0.77143366    -0.20920
C417        C  0.50203184  0.14889102  0.77726290    -0.08980
C418        C  0.50054945  0.12262101  0.76775668     0.29900
F419        F  0.02072313  0.11287830  0.77330941    -0.19500
H420        H  0.47817299  0.08482508  0.74792040     0.18260
H421        H  0.48040042  0.17719661  0.77848800     0.18270
F422        F  0.43266664  0.14561804  0.75595288    -0.19490
C423        C  0.42411322  0.13010450  0.71428519    -0.20920
C424        C  0.40591954  0.10219719  0.72598760    -0.08970
C425        C  0.37324532  0.09029920  0.72679653     0.29890
C426        C  0.35994772  0.10538329  0.71594011    -0.20920
C427        C  0.37840260  0.13279131  0.70439944    -0.08980
C428        C  0.41073681  0.14546719  0.70406916     0.29900
F429        F  0.42929813  0.17140802  0.69243720    -0.19500
H430        H  0.44897451  0.13960401  0.71258903     0.18260
H431        H  0.33486640  0.09504289  0.71603514     0.18270
F432        F  0.35339086  0.06329056  0.73679965    -0.19490
C433        C  0.12079193  0.03400172  0.76099585    -0.20920
C434        C  0.14867968  0.04993567  0.74895648    -0.08970
C435        C  0.17007386  0.03891730  0.75051079     0.29890
C436        C  0.16591967  0.01688581  0.76625094    -0.20920
C437        C  0.13957383  0.00393970  0.77960188    -0.08980
C438        C  0.11652774  0.01190154  0.77628237     0.29900
F439        F  0.09037623  0.99937950  0.78863103    -0.19500
H440        H  0.10306583  0.04054441  0.75970217     0.18260
H441        H  0.18300261  0.00953154  0.76779177     0.18270
F442        F  0.19424960  0.04807116  0.73664836    -0.19490
C443        C  0.14663098  0.14831397  0.75826390    -0.20920
C444        C  0.14518631  0.14312532  0.78054200    -0.08970
C445        C  0.15038823  0.11979724  0.78840716     0.29890
C446        C  0.15484187  0.10064681  0.77424195    -0.20920
C447        C  0.15281371  0.10302449  0.75160140    -0.08980
C448        C  0.15155701  0.12923615  0.74394552     0.29900
F449        F  0.15337075  0.13543057  0.72254001    -0.19500
H450        H  0.14404170  0.16720197  0.75198399     0.18260
H451        H  0.15970207  0.08378757  0.78144955     0.18270
F452        F  0.15035877  0.11492486  0.80993286    -0.19490
C453        C  0.24210124  0.12277997  0.72297256    -0.20920
C454        C  0.24226616  0.12694351  0.70065892    -0.08970
C455        C  0.21419673  0.11797211  0.69010886     0.29890
C456        C  0.18619839  0.10329501  0.70135916    -0.20920
C457        C  0.18499197  0.09647053  0.72360121    -0.08980
C458        C  0.21388419  0.10883584  0.73450536     0.29900
F459        F  0.21481086  0.10627978  0.75621585    -0.19500
H460        H  0.26379224  0.13074710  0.73148292     0.18260
H461        H  0.16559653  0.09781004  0.69226127     0.18270
F462        F  0.21374780  0.12285583  0.66861879    -0.19490
C463        C  0.47819912  0.38037718  0.74743014    -0.20920
C464        C  0.44877777  0.35264557  0.74643905    -0.08970
C465        C  0.44433187  0.32957808  0.76180624     0.29890
C466        C  0.46590099  0.33553615  0.77813194    -0.20920
C467        C  0.49370258  0.36420897  0.77995985    -0.08980
C468        C  0.50055389  0.38531542  0.76278917     0.29900
F469        F  0.02876413  0.41109315  0.76009496    -0.19500
H470        H  0.48418376  0.40024223  0.73740869     0.18260
H471        H  0.45979775  0.31682545  0.78930485     0.18270
F472        F  0.41875175  0.30126522  0.76251823    -0.19490
C473        C  0.41377662  0.37279038  0.77011683    -0.20920
C474        C  0.40056251  0.35689731  0.75048884    -0.08970
C475        C  0.36898819  0.34791158  0.74664168     0.29890
C476        C  0.35130221  0.35231502  0.76249119    -0.20920
C477        C  0.36470324  0.36622302  0.78222887    -0.08980
C478        C  0.39606287  0.37675975  0.78580867     0.29900
F479        F  0.40979295  0.39155670  0.80445348    -0.19500
H480        H  0.43812609  0.38268168  0.77374991     0.18260
H481        H  0.32719788  0.34513786  0.75930288     0.18270
F482        F  0.35541252  0.33583094  0.72738535    -0.19490
C483        C  0.38774453  0.28828692  0.68822026    -0.20920
C484        C  0.37126831  0.26114569  0.70015148    -0.08970
C485        C  0.36564678  0.26337575  0.72197611     0.29890
C486        C  0.37989835  0.29265951  0.73205931    -0.20920
C487        C  0.40104101  0.32031682  0.72092919    -0.08980
C488        C  0.40050506  0.31730289  0.69798162     0.29900
F489        F  0.40876651  0.34123430  0.68420640    -0.19500
H490        H  0.38936637  0.28702780  0.67084250     0.18260
H491        H  0.37372278  0.29359930  0.74865433     0.18270
F492        F  0.34691649  0.23746572  0.73355591    -0.19490
C493        C  0.35562010  0.42390509  0.36995799    -0.20920
C494        C  0.35326114  0.43053916  0.39186702    -0.08970
C495        C  0.38172098  0.45047202  0.40260149     0.29890
C496        C  0.41003152  0.46634811  0.39109283    -0.20920
C497        C  0.41110959  0.46092052  0.36900862    -0.08980
C498        C  0.38372404  0.43895271  0.35875511     0.29900
F499        F  0.38401610  0.43214385  0.33756298    -0.19500
H500        H  0.33579398  0.40654542  0.36112218     0.18260
H501        H  0.43118688  0.48218616  0.39953430     0.18270
F502        F  0.38220142  0.45507932  0.42418779    -0.19490
C503        C  0.07941252  0.11440823  0.36664004    -0.20920
C504        C  0.04739767  0.09343808  0.36825439    -0.08970
C505        C  0.02912193  0.10143544  0.38111447     0.29890
C506        C  0.04259554  0.12985240  0.39208765    -0.20920
C507        C  0.07487484  0.15140601  0.39059477    -0.08980
C508        C  0.09290195  0.14318874  0.37721372     0.29900
F509        F  0.12380098  0.16308967  0.37441222    -0.19500
H510        H  0.09382942  0.10913549  0.35631259     0.18260
H511        H  0.02705706  0.13507947  0.40101774     0.18270
F512        F  0.99794792  0.08193496  0.38277954    -0.19490
C513        C  0.04175585  0.42117904  0.39058545    -0.20920
C514        C  0.07443079  0.43353101  0.39029432    -0.08970
C515        C  0.09181614  0.45870374  0.37604935     0.29890
C516        C  0.07767777  0.47255806  0.36465870    -0.20920
C517        C  0.04557887  0.46145922  0.36645299    -0.08980
C518        C  0.02772731  0.43537803  0.37948815     0.29900
F519        F  0.99644387  0.42289799  0.38118844    -0.19500
H520        H  0.02620679  0.39985558  0.39879263     0.18260
H521        H  0.09202533  0.49187918  0.35411482     0.18270
F522        F  0.12283935  0.47031153  0.37331209    -0.19490
C523        C  0.14625444  0.17408143  0.44030302    -0.20920
C524        C  0.16249874  0.20377956  0.44952056    -0.08970
C525        C  0.15575350  0.22661295  0.44284268     0.29890
C526        C  0.13314449  0.21974219  0.42723253    -0.20920
C527        C  0.11699166  0.19015617  0.41719147    -0.08980
C528        C  0.12351861  0.16700025  0.42463446     0.29900
F529        F  0.10666871  0.13686142  0.41848369    -0.19500
H530        H  0.15062537  0.15591646  0.44572843     0.18260
H531        H  0.12782146  0.23770644  0.42302355     0.18270
F532        F  0.16990033  0.25515587  0.45218589    -0.19490
C533        C  0.32534200  0.39637320  0.44224339    -0.20920
C534        C  0.32243217  0.39082808  0.41971552    -0.08970
C535        C  0.32203146  0.36359882  0.41239476     0.29890
C536        C  0.31739240  0.34011711  0.42704800    -0.20920
C537        C  0.31592618  0.34456084  0.44927694    -0.08980
C538        C  0.32154182  0.37347873  0.45674797     0.29900
F539        F  0.32197098  0.37917921  0.47819946    -0.19500
H540        H  0.32982534  0.41826564  0.44905588     0.18260
H541        H  0.31454389  0.31835242  0.42105882     0.18270
F542        F  0.32329766  0.35846456  0.39102323    -0.19490
C543        C  0.04974193  0.39448551  0.43257727    -0.20920
C544        C  0.06776797  0.39001938  0.41684092    -0.08970
C545        C  0.06831493  0.36164197  0.41791232     0.29890
C546        C  0.05201590  0.33979918  0.43397118    -0.20920
C547        C  0.03340935  0.34415321  0.44909609    -0.08980
C548        C  0.03132938  0.37138218  0.44736558     0.29900
F549        F  0.51145657  0.37606602  0.45974190    -0.19500
H550        H  0.04976038  0.41627368  0.43333409     0.18260
H551        H  0.05550425  0.32004412  0.43499051     0.18270
F552        F  0.08732622  0.35586023  0.40541554    -0.19490
C553        C  0.04036486  0.21494222  0.42987230    -0.20920
C554        C  0.03053831  0.19667692  0.44861723    -0.08970
C555        C  0.03922123  0.17381780  0.45105628     0.29890
C556        C  0.05569791  0.16877014  0.43480249    -0.20920
C557        C  0.06696274  0.18801692  0.41638388    -0.08980
C558        C  0.05986898  0.21233197  0.41485931     0.29900
F559        F  0.07334270  0.23567001  0.40033472    -0.19500
H560        H  0.03414755  0.23258327  0.42697033     0.18260
H561        H  0.06151998  0.15071817  0.43728256     0.18270
F562        F  0.03383191  0.15746052  0.46957409    -0.19490
C563        C  0.28092054  0.44242319  0.44407954    -0.20920
C564        C  0.30277520  0.47385204  0.44656777    -0.08970
C565        C  0.32871007  0.48759674  0.43275233     0.29890
C566        C  0.33362033  0.46948687  0.41758545    -0.20920
C567        C  0.31375650  0.43692306  0.41684105    -0.08980
C568        C  0.28602240  0.42421622  0.42938743     0.29900
F569        F  0.26488997  0.39341252  0.42885278    -0.19500
H570        H  0.26037065  0.43158376  0.45423252     0.18260
H571        H  0.35336307  0.48118852  0.40691136     0.18270
F572        F  0.34921264  0.01853089  0.43394598    -0.19490
C573        C  0.12950009  0.42817668  0.43283914    -0.20920
C574        C  0.11518385  0.44075901  0.41972787    -0.08970
C575        C  0.12240754  0.47178175  0.42440596     0.29890
C576        C  0.14424503  0.48926896  0.44034921    -0.20920
C577        C  0.15839579  0.47622192  0.45260141    -0.08980
C578        C  0.15012465  0.44525601  0.44914009     0.29900
F579        F  0.16202586  0.43139501  0.46168183    -0.19500
H580        H  0.12485699  0.40470637  0.43035451     0.18260
H581        H  0.14901993  0.01252446  0.44388462     0.18270
F582        F  0.10853434  0.48571178  0.41432386    -0.19490
C583        C  0.10072433  0.03128200  0.68820298    -0.20920
C584        C  0.07923272  0.04161614  0.68717303    -0.08970
C585        C  0.07925385  0.06133474  0.70339987     0.29890
C586        C  0.10146205  0.07174377  0.71980432    -0.20920
C587        C  0.12561863  0.06447432  0.71966056    -0.08980
C588        C  0.12356129  0.04240802  0.70417418     0.29900
F589        F  0.14478972  0.03279873  0.70380817    -0.19500
H590        H  0.10062731  0.01549113  0.67608441     0.18260
H591        H  0.09931512  0.08549929  0.73243578     0.18270
F592        F  0.05739834  0.07014240  0.70360524    -0.19490
C593        C  0.44095819  0.06296281  0.67882342    -0.20920
C594        C  0.45680438  0.04765426  0.68484590    -0.08970
C595        C  0.45696053  0.04009801  0.70639437     0.29890
C596        C  0.44332932  0.04993126  0.72189085    -0.20920
C597        C  0.43188965  0.07027062  0.71685918    -0.08980
C598        C  0.42797353  0.07355656  0.69436199     0.29900
F599        F  0.41001493  0.08470812  0.68663826    -0.19500
H600        H  0.43839574  0.06653493  0.66190375     0.18260
H601        H  0.44193153  0.04152231  0.73815073     0.18270
F602        F  0.46951120  0.02247553  0.71238788    -0.19490
C603        C  0.42418196  0.40132696  0.71572017    -0.20920
C604        C  0.43466987  0.37959796  0.71697742    -0.08970
C605        C  0.45829665  0.38338759  0.70216225     0.29890
C606        C  0.46962491  0.40671366  0.68659141    -0.20920
C607        C  0.45793974  0.42711339  0.68493359    -0.08980
C608        C  0.43537314  0.42446332  0.69989633     0.29900
F609        F  0.42382254  0.44410281  0.69926660    -0.19500
H610        H  0.40679879  0.40055276  0.72659826     0.18260
H611        H  0.48710324  0.40817144  0.67538899     0.18270
F612        F  0.46939602  0.36333225  0.70213203    -0.19490
C613        C  0.20354244  0.09286669  0.59784739    -0.20920
C614        C  0.20607821  0.11225523  0.58038906    -0.08970
C615        C  0.23452356  0.14085418  0.57838162     0.29890
C616        C  0.25675456  0.15112422  0.59478317    -0.20920
C617        C  0.25257927  0.13262066  0.61287957    -0.08980
C618        C  0.22612109  0.10289320  0.61393686     0.29900
F619        F  0.22143981  0.08377449  0.63085809    -0.19500
H620        H  0.18329805  0.06992518  0.59936513     0.18260
H621        H  0.27778020  0.17346299  0.59305717     0.18270
F622        F  0.24222691  0.15845353  0.56031874    -0.19490
C623        C  0.17423711  0.13944306  0.51172984    -0.20920
C624        C  0.18761844  0.17052654  0.51820178    -0.08970
C625        C  0.19275699  0.17752609  0.54028920     0.29890
C626        C  0.18725889  0.15410200  0.55519823    -0.20920
C627        C  0.17888060  0.12382368  0.54818998    -0.08980
C628        C  0.16899341  0.11627054  0.52646968     0.29900
F629        F  0.15501984  0.08660190  0.51904876    -0.19500
H630        H  0.16870454  0.13305872  0.49495297     0.18260
H631        H  0.19192457  0.16032306  0.57202975     0.18270
F632        F  0.20341150  0.20697727  0.54741691    -0.19490
C633        C  0.21118236  0.08993806  0.53604440    -0.20920
C634        C  0.18553543  0.07655413  0.55040663    -0.08970
C635        C  0.16813943  0.04361858  0.55134259     0.29890
C636        C  0.17250741  0.02572886  0.53560122    -0.20920
C637        C  0.19582007  0.04007313  0.51988323    -0.08980
C638        C  0.21603302  0.07216683  0.52090209     0.29900
F639        F  0.23958403  0.08666625  0.50642207    -0.19500
H640        H  0.22642668  0.11481173  0.53542835     0.18260
H641        H  0.15806323  0.50067646  0.53584175     0.18270
F642        F  0.14800997  0.02845293  0.56768217    -0.19490
C643        C  0.11500093  0.08429103  0.60606339    -0.20920
C644        C  0.08885158  0.05834543  0.59760960    -0.08970
C645        C  0.09085316  0.04747703  0.57713990     0.29890
C646        C  0.11922550  0.06176522  0.56579956    -0.20920
C647        C  0.14693482  0.08511369  0.57549345    -0.08980
C648        C  0.14349637  0.09782658  0.59519116     0.29900
F649        F  0.16750906  0.12351439  0.60417419    -0.19500
H650        H  0.11357915  0.09363363  0.62156297     0.18260
H651        H  0.11967296  0.05344142  0.54976867     0.18270
F652        F  0.06544806  0.02315782  0.56813116    -0.19490
C653        C  0.37378534  0.08522741  0.59694994    -0.20920
C654        C  0.39626265  0.10618370  0.58218099    -0.08970
C655        C  0.40900854  0.13847975  0.58664033     0.29890
C656        C  0.39682372  0.14857803  0.60302702    -0.20920
C657        C  0.37218903  0.12742865  0.61592139    -0.08980
C658        C  0.36103415  0.09552548  0.61304546     0.29900
F659        F  0.33839427  0.07435688  0.62611568    -0.19500
H660        H  0.36511682  0.06051918  0.59539332     0.18260
H661        H  0.40679235  0.17333634  0.60561362     0.18270
F662        F  0.43438323  0.16089201  0.57621530    -0.19490
C663        C  0.45850477  0.12737589  0.54098270    -0.20920
C664        C  0.42809129  0.11982930  0.54716298    -0.08970
C665        C  0.41408761  0.13449776  0.53588192     0.29890
C666        C  0.42956067  0.15513493  0.51913822    -0.20920
C667        C  0.45952348  0.16219093  0.51304907    -0.08980
C668        C  0.47408869  0.14843973  0.52430166     0.29900
F669        F  0.00359079  0.15556770  0.51931578    -0.19500
H670        H  0.47013841  0.11629569  0.54827850     0.18260
H671        H  0.41781965  0.16535956  0.51070128     0.18270
F672        F  0.38489126  0.12835497  0.54086136    -0.19490
C673        C  0.34999913  0.06113793  0.55054703    -0.20920
C674        C  0.38153825  0.06948866  0.54836222    -0.08970
C675        C  0.38986646  0.05878486  0.52959648     0.29890
C676        C  0.36879302  0.04434040  0.51286002    -0.20920
C677        C  0.33782001  0.03750707  0.51470939    -0.08980
C678        C  0.32830814  0.04421589  0.53455352     0.29900
F679        F  0.29798176  0.03466111  0.53875982    -0.19500
H680        H  0.34154361  0.06849152  0.56401547     0.18260
H681        H  0.37745813  0.03956764  0.49818792     0.18270
F682        F  0.41936941  0.06446193  0.52663849    -0.19490
C683        C  0.46702079  0.08372905  0.59827804    -0.20920
C684        C  0.45619217  0.05167234  0.59711123    -0.08970
C685        C  0.43000996  0.03315634  0.58431644     0.29890
C686        C  0.41482692  0.04635763  0.57341338    -0.20920
C687        C  0.42559487  0.07867899  0.57435426    -0.08980
C688        C  0.45192073  0.09698804  0.58736708     0.29900
F689        F  0.46309810  0.12792563  0.58974825    -0.19500
H690        H  0.48680179  0.09865929  0.60826397     0.18260
H691        H  0.39397808  0.03056676  0.56476123     0.18270
F692        F  0.41827675  0.00199828  0.58279460    -0.19490
C693        C  0.40884881  0.27902170  0.61551874    -0.20920
C694        C  0.37721851  0.25644844  0.61587238    -0.08970
C695        C  0.35692759  0.25910658  0.60165214     0.29890
C696        C  0.36842088  0.28245176  0.58614225    -0.20920
C697        C  0.40076046  0.30351702  0.58388829    -0.08980
C698        C  0.42036178  0.30304802  0.60026977     0.29900
F699        F  0.45117820  0.32439052  0.60046316    -0.19500
H700        H  0.42458165  0.27818719  0.62717803     0.18260
H701        H  0.35139871  0.28364501  0.57607047     0.18270
F702        F  0.32587792  0.23860272  0.60242449    -0.19490
C703        C  0.35938053  0.33801260  0.52523950    -0.20920
C704        C  0.34387538  0.30865110  0.51544233    -0.08970
C705        C  0.35095492  0.28594423  0.52188821     0.29890
C706        C  0.37303080  0.29256362  0.53787677    -0.20920
C707        C  0.38838386  0.32177509  0.54846798    -0.08980
C708        C  0.38164780  0.34487101  0.54122894     0.29900
F709        F  0.39769070  0.37475353  0.54803588    -0.19500
H710        H  0.35465920  0.35607779  0.52014491     0.18260
H711        H  0.37846341  0.27466136  0.54205290     0.18270
F712        F  0.33750991  0.25772597  0.51210096    -0.19490
C713        C  0.46820265  0.29927177  0.53935266    -0.20920
C714        C  0.47761259  0.31673351  0.52020969    -0.08970
C715        C  0.46803992  0.33876553  0.51699002     0.29890
C716        C  0.45007377  0.34298116  0.53242227    -0.20920
C717        C  0.43839329  0.32379661  0.55084823    -0.08980
C718        C  0.44720469  0.30090128  0.55353531     0.29900
F719        F  0.43418267  0.27800923  0.56839821    -0.19500
H720        H  0.47546707  0.28262984  0.54303940     0.18260
H721        H  0.44353262  0.36037288  0.52927716     0.18270
F722        F  0.47375519  0.35484118  0.49830998    -0.19490
C723        C  0.46184493  0.38184739  0.57418322    -0.20920
C724        C  0.42956818  0.36003535  0.57580820    -0.08970
C725        C  0.41148882  0.36820425  0.58905102     0.29890
C726        C  0.42479911  0.39715161  0.59922954    -0.20920
C727        C  0.45670728  0.41880050  0.59710977    -0.08980
C728        C  0.47508607  0.41081255  0.58436973     0.29900
F729        F  0.50611835  0.43060032  0.58212608    -0.19500
H730        H  0.47763729  0.37668678  0.56555132     0.18260
H731        H  0.41002056  0.40225956  0.60928565     0.18270
F732        F  0.38062090  0.34823716  0.59194278    -0.19490
C733        C  0.14912912  0.40706035  0.36658547    -0.20920
C734        C  0.12862106  0.38448926  0.35208183    -0.08970
C735        C  0.09680636  0.37502504  0.35332969     0.29890
C736        C  0.08579232  0.38679962  0.36937489    -0.20920
C737        C  0.10587790  0.40825876  0.38488854    -0.08980
C738        C  0.13827556  0.41930738  0.38251248     0.29900
F739        F  0.16007267  0.44258012  0.39474718    -0.19500
H740        H  0.17388690  0.41554750  0.36553402     0.18260
H741        H  0.06103944  0.37842950  0.37010070     0.18270
F742        F  0.07612639  0.35446348  0.33899658    -0.19490
C743        C  0.09095795  0.23216678  0.35207410    -0.20920
C744        C  0.12236573  0.25518656  0.35093170    -0.08970
C745        C  0.14391159  0.25273033  0.36405762     0.29890
C746        C  0.13398551  0.22900726  0.37915280    -0.20920
C747        C  0.10202136  0.20757811  0.38233407    -0.08980
C748        C  0.08095787  0.20792953  0.36707802     0.29900
F749        F  0.05023388  0.18637701  0.36791588    -0.19500
H750        H  0.07425925  0.23277497  0.34121166     0.18260
H751        H  0.15185902  0.22793324  0.38829391     0.18270
F752        F  0.17478263  0.27369467  0.36252862    -0.19490
C753        C  0.24692758  0.35719946  0.37044808    -0.20920
C754        C  0.24778252  0.37703872  0.35410382    -0.08970
C755        C  0.27068108  0.40865469  0.35512297     0.29890
C756        C  0.29274853  0.41962226  0.37153116    -0.20920
C757        C  0.29375800  0.39958481  0.38723118    -0.08980
C758        C  0.26894353  0.36822210  0.38708711     0.29900
F759        F  0.26403042  0.34834201  0.40347634    -0.19500
H760        H  0.22860311  0.33308836  0.37067955     0.18260
H761        H  0.31017442  0.44408263  0.37155972     0.18270
F762        F  0.27237941  0.42913744  0.34000506    -0.19490
C763        C  0.04395146  0.43915203  0.28414617    -0.20920
C764        C  0.04009350  0.46446502  0.27913055    -0.08970
C765        C  0.04497811  0.47536640  0.25790606     0.29890
C766        C  0.05484201  0.46183734  0.24222258    -0.20920
C767        C  0.06262784  0.43887178  0.24761308    -0.08980
C768        C  0.05463984  0.42617802  0.26869653     0.29900
F769        F  0.05581790  0.40047804  0.27446237    -0.19500
H770        H  0.03876726  0.42938502  0.30023576     0.18260
H771        H  0.05761023  0.47037276  0.22590674     0.18270
F772        F  0.03938800  0.49846595  0.25219475    -0.19490
C773        C  0.11636830  0.42788595  0.25616441    -0.20920
C774        C  0.09319141  0.41039218  0.24076445    -0.08970
C775        C  0.08835963  0.38035038  0.23570410     0.29890
C776        C  0.10288210  0.36733045  0.24778894    -0.20920
C777        C  0.12400542  0.38430731  0.26419861    -0.08980
C778        C  0.13130858  0.41519318  0.26776339     0.29900
F779        F  0.15187121  0.43293325  0.28322562    -0.19500
H780        H  0.12208385  0.45146465  0.25989286     0.18260
H781        H  0.09787438  0.34395904  0.24409030     0.18270
F782        F  0.07126035  0.36384054  0.21855061    -0.19490
C783        C  0.04235716  0.10476646  0.24323032    -0.20920
C784        C  0.06344808  0.13621199  0.24893787    -0.08970
C785        C  0.07095701  0.14229605  0.27123141     0.29890
C786        C  0.05744246  0.11847413  0.28648966    -0.20920
C787        C  0.03570746  0.08807872  0.28054667    -0.08980
C788        C  0.02819174  0.08126864  0.25877310     0.29900
F789        F  0.50801228  0.05172466  0.25244315    -0.19500
H790        H  0.03642106  0.09854495  0.22647654     0.18260
H791        H  0.06413223  0.12384479  0.30324376     0.18270
F792        F  0.09190448  0.17070795  0.27888150    -0.19490
C793        C  0.05562461  0.17647419  0.19734041    -0.20920
C794        C  0.04932233  0.15948510  0.21668075    -0.08970
C795        C  0.01720473  0.14249297  0.22269245     0.29890
C796        C  0.49376121  0.13723363  0.20784661    -0.20920
C797        C  0.00131345  0.15034880  0.18716837    -0.08980
C798        C  0.03269568  0.17114872  0.18251217     0.29900
F799        F  0.04196289  0.18541807  0.16307132    -0.19500
H800        H  0.07826477  0.19419282  0.19284049     0.18260
H801        H  0.46964039  0.12303215  0.21263493     0.18270
F802        F  0.50798889  0.13259856  0.24317150    -0.19490
C803        C  0.07767771  0.20903807  0.24784957    -0.20920
C804        C  0.09459873  0.19470912  0.24088419    -0.08970
C805        C  0.12688488  0.21007760  0.24588708     0.29890
C806        C  0.14130286  0.23890440  0.25639059    -0.20920
C807        C  0.12405360  0.25271425  0.26318599    -0.08980
C808        C  0.09200017  0.23745910  0.25861494     0.29900
F809        F  0.07389863  0.24925275  0.26528853    -0.19500
H810        H  0.05278893  0.19781517  0.24564677     0.18260
H811        H  0.16574465  0.24951419  0.26036345     0.18270
F812        F  0.14434204  0.19653082  0.24208609    -0.19490
C813        C  0.39135547  0.42836856  0.25113739    -0.20920
C814        C  0.36973442  0.43904135  0.24945136    -0.08970
C815        C  0.36927422  0.45772685  0.26657291     0.29890
C816        C  0.39200107  0.46849749  0.28269128    -0.20920
C817        C  0.41506863  0.45997066  0.28282371    -0.08980
C818        C  0.41396510  0.43912025  0.26713180     0.29900
F819        F  0.43500330  0.42924681  0.26692711    -0.19500
H820        H  0.39125575  0.41136377  0.24026151     0.18260
H821        H  0.39160325  0.98374031  0.29504549     0.18270
F822        F  0.34765523  0.46682509  0.26718491    -0.19490
C823        C  0.37573279  0.50861799  0.20225249    -0.20920
C824        C  0.35979992  0.49885157  0.18254629    -0.08970
C825        C  0.33692278  0.46741400  0.18029631     0.29890
C826        C  0.33059021  0.44677475  0.19717649    -0.20920
C827        C  0.34891927  0.45549524  0.21610578    -0.08980
C828        C  0.37158649  0.48736636  0.21839869     0.29900
F829        F  0.39146071  0.49859332  0.23519166    -0.19500
H830        H  0.39279790  0.03281365  0.20495503     0.18260
H831        H  0.31285880  0.42275645  0.19462523     0.18270
F832        F  0.32217861  0.45566331  0.16131214    -0.19490
C833        C  0.29120677  0.42213503  0.23979664    -0.20920
C834        C  0.31287863  0.41154986  0.24165524    -0.08970
C835        C  0.30487421  0.38610223  0.25552250     0.29890
C836        C  0.27665445  0.37195781  0.26669466    -0.20920
C837        C  0.25554655  0.38287623  0.26485818    -0.08980
C838        C  0.26295177  0.40789549  0.25101895     0.29900
F839        F  0.24328336  0.41921478  0.24864402    -0.19500
H840        H  0.29606662  0.44221080  0.23028257     0.18260
H841        H  0.27184724  0.35290850  0.27742288     0.18270
F842        F  0.32469001  0.37510323  0.25858446    -0.19490
C843        C  0.38332256  0.40370210  0.18645350    -0.20920
C844        C  0.36029068  0.37326469  0.18182887    -0.08970
C845        C  0.33222608  0.35978694  0.19347103     0.29890
C846        C  0.32731907  0.37676917  0.20945381    -0.20920
C847        C  0.35065486  0.40743434  0.21460100    -0.08980
C848        C  0.37871296  0.42061001  0.20242577     0.29900
F849        F  0.40183799  0.45025551  0.20593489    -0.19500
H850        H  0.40496599  0.41463552  0.17745073     0.18260
H851        H  0.30481148  0.36577228  0.21718571     0.18270
F852        F  0.30962997  0.33004261  0.18956198    -0.19490
C853        C  0.02499750  0.37556292  0.22194712    -0.20920
C854        C  0.04821304  0.40561281  0.21537261    -0.08970
C855        C  0.04282775  0.41676595  0.19566360     0.29890
C856        C  0.02002952  0.39670652  0.18143574    -0.20920
C857        C  0.00022657  0.36568773  0.18682791    -0.08980
C858        C  0.00172163  0.35541054  0.20757890     0.29900
F859        F  0.98105785  0.32596924  0.21379524    -0.19500
H860        H  0.02595306  0.36707443  0.23779986     0.18260
H861        H  0.01746878  0.40561596  0.16612543     0.18270
F862        F  0.05874706  0.44721934  0.19004628    -0.19490
C863        C  0.11688415  0.48460280  0.22139154    -0.20920
C864        C  0.10282580  0.45258488  0.21650514    -0.08970
C865        C  0.11246753  0.44437446  0.19735520     0.29890
C866        C  0.12802024  0.46645534  0.18143771    -0.20920
C867        C  0.13733893  0.49793039  0.18483339    -0.08980
C868        C  0.13364219  0.00706692  0.20565008     0.29900
F869        F  0.14591442  0.03752839  0.21081740    -0.19500
H870        H  0.11408641  0.99244488  0.23706655     0.18260
H871        H  0.13079123  0.45813429  0.16592932     0.18270
F872        F  0.10293334  0.41425412  0.19262741    -0.19490
C873        C  0.13150949  0.17013552  0.18277668    -0.20920
C874        C  0.13208754  0.14212911  0.18302046    -0.08970
C875        C  0.11989648  0.12344676  0.20165143     0.29890
C876        C  0.10332706  0.13001232  0.21715885    -0.20920
C877        C  0.09933995  0.15624776  0.21547125    -0.08980
C878        C  0.11803299  0.17817364  0.19948524     0.29900
F879        F  0.12592809  0.20853552  0.20067651    -0.19500
H880        H  0.14195203  0.18683367  0.16994828     0.18260
H881        H  0.09461956  0.11448108  0.23074067     0.18270
F882        F  0.12483376  0.09946511  0.20572499    -0.19490
C883        C  0.21808888  0.41504365  0.92610886    -0.20920
C884        C  0.21034070  0.42027902  0.94677840    -0.08970
C885        C  0.21381574  0.44935383  0.95155998     0.29890
C886        C  0.22486620  0.47278217  0.93605060    -0.20920
C887        C  0.23187188  0.46809675  0.91464882    -0.08980
C888        C  0.22799983  0.43808592  0.91013688     0.29900
F889        F  0.23206876  0.42998653  0.88998541    -0.19500
H890        H  0.21513829  0.39251820  0.92200767     0.18260
H891        H  0.22749576  0.49437865  0.94156970     0.18270
F892        F  0.20690912  0.45543629  0.97155513    -0.19490
C893        C  0.03740301  0.29437613  0.92886432    -0.20920
C894        C  0.03551122  0.27087157  0.91491791    -0.08970
C895        C  0.05487350  0.25820224  0.91996750     0.29890
C896        C  0.07799310  0.27191597  0.93555283    -0.20920
C897        C  0.08220523  0.29782177  0.94725612    -0.08980
C898        C  0.06118667  0.30856231  0.94421641     0.29900
F899        F  0.06311693  0.33217396  0.95641848    -0.19500
H900        H  0.02140126  0.30303016  0.92694870     0.18260
H901        H  0.09272160  0.26199758  0.93856232     0.18270
F902        F  0.05100105  0.23163119  0.91089974    -0.19490
C903        C  0.18586618  0.26676845  0.93599045    -0.20920
C904        C  0.20596255  0.29183586  0.94897680    -0.08970
C905        C  0.23826976  0.30370523  0.94685080     0.29890
C906        C  0.24990469  0.29216527  0.93096910    -0.20920
C907        C  0.23003941  0.26978186  0.91592849    -0.08980
C908        C  0.19746441  0.25522156  0.92014869     0.29900
F909        F  0.17638021  0.22900167  0.90982679    -0.19500
H910        H  0.16090511  0.25581270  0.93813804     0.18260
H911        H  0.27484716  0.30194798  0.92970133     0.18270
F912        F  0.25884143  0.32668331  0.95994431    -0.19490
C913        C  0.27520348  0.09268537  0.03786268    -0.20920
C914        C  0.28926823  0.08985757  0.01913616    -0.08970
C915        C  0.29186994  0.06331974  0.01633778     0.29890
C916        C  0.28066475  0.04013819  0.03195554    -0.20920
C917        C  0.26656645  0.04217340  0.05130923    -0.08980
C918        C  0.26474710  0.06992276  0.05394016     0.29900
F919        F  0.25623679  0.07741276  0.07282121    -0.19500
H920        H  0.27376222  0.11347267  0.04062433     0.18260
H921        H  0.28368895  0.02091222  0.02815665     0.18270
F922        F  0.30507555  0.05940691  0.99825582    -0.19490
C923        C  0.28685105  0.99707214  0.09217959    -0.20920
C924        C  0.28621206  0.02222596  0.08190669    -0.08970
C925        C  0.30951228  0.05262383  0.08821435     0.29890
C926        C  0.33137186  0.05716303  0.10391786    -0.20920
C927        C  0.33177794  0.03203579  0.11373281    -0.08980
C928        C  0.30977595  0.00181996  0.10711980     0.29900
F929        F  0.30991838  0.47659752  0.11530754    -0.19500
H930        H  0.26870062  0.47332472  0.08948968     0.18260
H931        H  0.34729904  0.08075560  0.10899287     0.18270
F932        F  0.31040159  0.07854037  0.08069849    -0.19490
C933        C  0.18888361  0.02516637  0.09389207    -0.20920
C934        C  0.19597190  0.02832915  0.11589546    -0.08970
C935        C  0.22176529  0.02660652  0.12294820     0.29890
C936        C  0.23998644  0.02153694  0.10838954    -0.20920
C937        C  0.23408626  0.01911483  0.08591182    -0.08980
C938        C  0.20753442  0.02058245  0.07905103     0.29900
F939        F  0.20012641  0.01842388  0.05783183    -0.19500
H940        H  0.16887570  0.02627156  0.08818689     0.18260
H941        H  0.25906452  0.02016257  0.11539054     0.18270
F942        F  0.23009307  0.03077306  0.14404674    -0.19490
C943        C  0.20722176  0.46232501  0.05985022    -0.20920
C944        C  0.23991847  0.48302993  0.05867481    -0.08970
C945        C  0.25722519  0.47130895  0.04773722     0.29890
C946        C  0.24247365  0.44348602  0.03620309    -0.20920
C947        C  0.20996359  0.42532379  0.03547385    -0.08980
C948        C  0.19247458  0.43449139  0.04810178     0.29900
F949        F  0.16100033  0.41679942  0.04902735    -0.19500
H950        H  0.19209130  0.46686004  0.06968405     0.18260
H951        H  0.25688515  0.43644288  0.02747413     0.18270
F952        F  0.28881002  0.48629296  0.04833162    -0.19490
C953        C  0.44657028  0.25155216  0.04502960    -0.20920
C954        C  0.46303614  0.23627719  0.05077326    -0.08970
C955        C  0.45810384  0.21046006  0.03802791     0.29890
C956        C  0.43465310  0.19805957  0.02244070    -0.20920
C957        C  0.41699274  0.21223032  0.01805137    -0.08980
C958        C  0.42380590  0.23965960  0.02905775     0.29900
F959        F  0.40791977  0.25469539  0.02476772    -0.19500
H960        H  0.45098367  0.27277423  0.05295302     0.18260
H961        H  0.43063447  0.17761051  0.01351919     0.18270
F962        F  0.47504044  0.19626909  0.04127909    -0.19490
C963        C  0.00676681  0.29743379  0.09374939    -0.20920
C964        C  0.48184082  0.26951121  0.08544866    -0.08970
C965        C  0.45196817  0.25896569  0.09464221     0.29890
C966        C  0.44734748  0.27574747  0.11073290    -0.20920
C967        C  0.47199495  0.30363009  0.11853970    -0.08980
C968        C  0.00188622  0.31446843  0.10984126     0.29900
F969        F  0.02640281  0.34159735  0.11672622    -0.19500
H970        H  0.03039512  0.30591657  0.08839304     0.18260
H971        H  0.42418318  0.26641515  0.11744347     0.18270
F972        F  0.42679306  0.23202055  0.08827076    -0.19490
C973        C  0.45364822  0.19333007  0.08627717    -0.20920
C974        C  0.48246550  0.22128774  0.08470891    -0.08970
C975        C  0.00521992  0.22663214  0.10042519     0.29890
C976        C  0.00019496  0.20402226  0.11564541    -0.20920
C977        C  0.47133425  0.17649972  0.11719344    -0.08980
C978        C  0.44783636  0.17179354  0.10250337     0.29900
F979        F  0.41843566  0.14742321  0.10450313    -0.19500
H980        H  0.43437782  0.18866176  0.07591150     0.18260
H981        H  0.01897742  0.20859937  0.12652573     0.18270
F982        F  0.03238079  0.25407738  0.10138302    -0.19490
C983        C  0.03737351  0.24977513  0.05605266    -0.20920
C984        C  0.01908669  0.26421751  0.05814164    -0.08970
C985        C  0.02955619  0.29265824  0.04715377     0.29890
C986        C  0.05796667  0.30692548  0.03613153    -0.20920
C987        C  0.07644567  0.29287283  0.03478304    -0.08980
C988        C  0.06569794  0.26396002  0.04486279     0.29900
F989        F  0.08189527  0.24867417  0.04332817    -0.19500
H990        H  0.02957270  0.22688629  0.06255092     0.18260
H991        H  0.06500648  0.32873879  0.02802966     0.18270
F992        F  0.01221450  0.30680400  0.04693496    -0.19490
C993        C  0.29323657  0.23292939  0.05603816    -0.20920
C994        C  0.26925402  0.23961378  0.05087043    -0.08970
C995        C  0.26238179  0.23865058  0.02840683     0.29890
C996        C  0.27529959  0.22756487  0.01321615    -0.20920
C997        C  0.29729345  0.21939001  0.01905202    -0.08980
C998        C  0.30707958  0.22313465  0.04046699     0.29900
F999        F  0.32910319  0.21614289  0.04651864    -0.19500
H1000       H  0.30123802  0.23493873  0.07247430     0.18260
H1001       H  0.26848084  0.22598149  0.99647802     0.18270
F1002       F  0.24425123  0.24909356  0.02006461    -0.19490
C1003       C  0.33259934  0.31012209  0.09476867    -0.20920
C1004       C  0.32582210  0.30576720  0.11686257    -0.08970
C1005       C  0.29535847  0.28532145  0.12349041     0.29890
C1006       C  0.27235450  0.26855898  0.10843214    -0.20920
C1007       C  0.27868985  0.27092242  0.08597999    -0.08980
C1008       C  0.30930084  0.29355040  0.07946035     0.29900
F1009       F  0.31685553  0.29971021  0.05829398    -0.19500
H1010       H  0.35589178  0.32670492  0.08937004     0.18260
H1011       H  0.24969371  0.25345972  0.11507830     0.18270
F1012       F  0.28784708  0.28080756  0.14476229    -0.19490
C1013       C  0.23569185  0.19482854  0.08704997    -0.20920
C1014       C  0.22921899  0.21892332  0.08236206    -0.08970
C1015       C  0.20354444  0.21771745  0.09379141     0.29890
C1016       C  0.18593435  0.19391233  0.10845149    -0.20920
C1017       C  0.19386927  0.17131213  0.11355790    -0.08980
C1018       C  0.21908127  0.17211879  0.10259507     0.29900
F1019       F  0.22928927  0.15222005  0.10778132    -0.19500
H1020       H  0.25452744  0.19351089  0.07969074     0.18260
H1021       H  0.16668449  0.19408226  0.11660831     0.18270
F1022       F  0.19730868  0.24134265  0.09300242    -0.19490
C1023       C  0.25015914  0.29821888  0.05928375    -0.20920
C1024       C  0.23648423  0.26540886  0.05960424    -0.08970
C1025       C  0.20707705  0.24790828  0.04945270     0.29890
C1026       C  0.19328905  0.26253924  0.03873212    -0.20920
C1027       C  0.20820215  0.29505600  0.03716153    -0.08980
C1028       C  0.23647244  0.31281055  0.04808899     0.29900
F1029       F  0.25165989  0.34432561  0.04731330    -0.19500
H1030       H  0.27214604  0.31319364  0.06694153     0.18260
H1031       H  0.17149451  0.24802216  0.03051887     0.18270
F1032       F  0.19282683  0.21645009  0.04811012    -0.19490
C1033       C  0.25330437  0.74880477  0.06945922    -0.02110
C1034       C  0.48683422  0.74802414  0.06959799    -0.02110
C1035       C  0.25654600  0.51650767  0.06933026    -0.02110
O1036       O  0.12010923  0.79338145  0.01783876    -0.81420
C1037       C  0.19756782  0.89550032  0.96328571     0.97940
O1038       O  0.17489424  0.89208260  0.97466998    -0.70530
O1039       O  0.12187082  0.83972495  0.96769274    -0.74120
Al1040     Al  0.14553538  0.85951118  0.99296063     1.48980
C1041       C  0.10663713  0.81087803  0.96394258     0.93190
O1042       O  0.16418893  0.79257979  0.96779045    -0.80350
O1043       O  0.20933509  0.83819571  0.01880089    -0.73900
Al1044     Al  0.14385737  0.79611044  0.99289635     1.90120
O1045       O  0.21156898  0.82813705  0.97583843    -0.72970
O1046       O  0.21284538  0.89188993  0.00961544    -0.72820
O1047       O  0.20973759  0.87880756  0.96644237    -0.78480
O1048       O  0.16619292  0.88228646  0.01839644    -0.76690
O1049       O  0.16535122  0.83761336  0.99289618    -1.12820
O1050       O  0.11184269  0.83173351  0.01087376    -0.72010
C1051       C  0.10462866  0.80691742  0.02079033     0.98700
C1052       C  0.19314760  0.80478726  0.96496875     0.95100
Al1053     Al  0.20704353  0.85750089  0.99271864     1.55560
O1054       O  0.11193431  0.79228521  0.97433105    -0.76640
C1055       C  0.19533419  0.89809038  0.02072063     0.99270
C1056       C  0.19551257  0.80918215  0.02207240     0.94150
O1057       O  0.17147434  0.79121872  0.01144196    -0.81960
C1058       C  0.14611492  0.63351533  0.16438396     0.03510
C1059       C  0.16602492  0.65605346  0.14931525    -0.12640
C1060       C  0.17620613  0.64771272  0.13066276     0.01010
C1061       C  0.16976163  0.61699665  0.12848489    -0.11160
C1062       C  0.15364108  0.59454039  0.14462428     0.03500
C1063       C  0.13911644  0.60254622  0.16105785    -0.10580
H1064       H  0.17392801  0.68036814  0.15172759     0.09100
H1065       H  0.17751349  0.61120837  0.11394462     0.06630
H1066       H  0.12181468  0.58451993  0.17099397     0.06470
C1067       C  0.17658428  0.53321990  0.13174348     0.03510
C1068       C  0.16976529  0.55707011  0.12906726    -0.12640
C1069       C  0.15458941  0.56449595  0.14544503     0.01010
C1070       C  0.14396887  0.54479900  0.16383793    -0.11160
C1071       C  0.15000453  0.52008810  0.16634924     0.03500
C1072       C  0.16703132  0.01525607  0.15037216    -0.10580
H1073       H  0.17806296  0.57029121  0.11443331     0.09100
H1074       H  0.13105056  0.54830128  0.17640291     0.06630
H1075       H  0.17309516  0.99729840  0.15230433     0.06470
C1076       C  0.46550652  0.82039751  0.13586508     0.03510
C1077       C  0.98495007  0.83266437  0.15386806    -0.12640
C1078       C  0.47672032  0.84582394  0.17082144     0.01010
C1079       C  0.44841529  0.84551386  0.17021765    -0.11160
C1080       C  0.42900034  0.83477533  0.15186289     0.03500
C1081       C  0.43851244  0.82281621  0.13465649    -0.10580
H1082       H  0.00651682  0.83224155  0.15473636     0.09100
H1083       H  0.44281948  0.85484156  0.18411906     0.06630
H1084       H  0.42543355  0.81549740  0.11988305     0.06470
C1085       C  0.34994652  0.82320653  0.13320665     0.03510
C1086       C  0.37696760  0.82086916  0.13429606    -0.12640
C1087       C  0.39969542  0.83682398  0.15041627     0.01010
C1088       C  0.39388396  0.85477087  0.16538565    -0.11160
C1089       C  0.36623339  0.85578661  0.16504427     0.03500
C1090       C  0.34467599  0.84052057  0.14871965    -0.10580
H1091       H  0.37912600  0.80567174  0.12284802     0.09100
H1092       H  0.41045199  0.86823826  0.17767377     0.06630
H1093       H  0.32374607  0.84219704  0.14802791     0.06470
C1094       C  0.34555589  0.92855040  0.23075638    -0.02110
C1095       C  0.07690273  0.66168823  0.23073788    -0.02110
C1096       C  0.07639798  0.92646130  0.23017015    -0.02110
O1097       O  0.12031806  0.78685467  0.28790898    -0.81420
C1098       C  0.22445080  0.86511164  0.33645755     0.97940
O1099       O  0.20801588  0.83630743  0.33292799    -0.70530
O1100       O  0.15725737  0.78452562  0.32380477    -0.74120
Al1101     Al  0.18665361  0.81743205  0.30674317     1.48980
C1102       C  0.13372952  0.77971767  0.33448778     0.93190
O1103       O  0.12152203  0.84848938  0.32441639    -0.80350
O1104       O  0.16147844  0.88706963  0.28891987    -0.73900
Al1105     Al  0.12524977  0.81966164  0.30605684     1.90120
O1106       O  0.16937761  0.88401041  0.33206127    -0.72970
O1107       O  0.21174656  0.88286188  0.28121832    -0.72820
O1108       O  0.22148521  0.88419646  0.32480580    -0.78480
O1109       O  0.22111764  0.84566576  0.28975950    -0.76690
O1110       O  0.16688591  0.83923899  0.30642438    -1.12820
O1111       O  0.16722350  0.79526408  0.28089110    -0.72010
C1112       C  0.13817705  0.78016647  0.27767270     0.98700
C1113       C  0.14050140  0.87165008  0.33538318     0.95100
Al1114     Al  0.18901996  0.88078595  0.30664525     1.55560
O1115       O  0.12068963  0.79557876  0.33123553    -0.76640
C1116       C  0.22764621  0.86960326  0.27896579     0.99270
C1117       C  0.13726209  0.86977401  0.27831457     0.94150
O1118       O  0.12358276  0.84067231  0.28073550    -0.81960
C1119       C  0.46556516  0.65352929  0.13453202     0.03510
C1120       C  0.48035449  0.66315234  0.15453740    -0.12640
C1121       C  0.47743578  0.64130990  0.16996521     0.01010
C1122       C  0.45390356  0.61020016  0.16730805    -0.11160
C1123       C  0.43638158  0.60018726  0.14805533     0.03500
C1124       C  0.44552083  0.62171115  0.13104728    -0.10580
H1125       H  0.99532386  0.68762556  0.15786886     0.09100
H1126       H  0.45001271  0.59419045  0.18020773     0.06630
H1127       H  0.43692262  0.61403618  0.11499005     0.06470
C1128       C  0.36835686  0.52119510  0.16430019     0.03510
C1129       C  0.34614667  0.51802157  0.14904455    -0.12640
C1130       C  0.35471767  0.53757273  0.13105642     0.01010
C1131       C  0.38487748  0.56337500  0.13016346    -0.11160
C1132       C  0.40703650  0.56906500  0.14633917     0.03500
C1133       C  0.39900940  0.54612225  0.16220042    -0.10580
H1134       H  0.32197352  0.00068955  0.15123539     0.09100
H1135       H  0.39034357  0.57920687  0.11693528     0.06630
H1136       H  0.41646037  0.54759762  0.17315170     0.06470
C1137       C  0.41431719  0.82738081  0.56500571    -0.02110
C1138       C  0.40794305  0.59348287  0.56333130    -0.02110
C1139       C  0.17904021  0.59933913  0.56373674    -0.02110
O1140       O  0.49323721  0.55546018  0.62292962    -0.81420
C1141       C  0.46913928  0.95043306  0.66735031     0.97940
O1142       O  0.45606732  0.96628166  0.66399068    -0.70530
O1143       O  0.45256147  0.51629455  0.65538349    -0.74120
Al1144     Al  0.45865826  0.98796899  0.63827230     1.48980
C1145       C  0.47031563  0.53697698  0.66830400     0.93190
O1146       O  0.05212483  0.55201952  0.66034974    -0.80350
O1147       O  0.05332482  0.51591113  0.61892502    -0.73900
Al1148     Al  0.02101886  0.54955203  0.64134971     1.90120
O1149       O  0.04400704  0.50457937  0.66238177    -0.72970
O1150       O  0.49964729  0.96506095  0.61156421    -0.72820
O1151       O  0.49148207  0.95373686  0.65549767    -0.78480
O1152       O  0.45296691  0.95363138  0.62131784    -0.76690
O1153       O  0.50033384  0.50823386  0.63873685    -1.12820
O1154       O  0.45777564  0.50846850  0.61266645    -0.72010
C1155       C  0.47016900  0.53772888  0.61120275     0.98700
C1156       C  0.05721422  0.53216055  0.66906453     0.95100
Al1157     Al  0.02038619  0.98677572  0.63712002     1.55560
O1158       O  0.49927882  0.54889168  0.66677116    -0.76640
C1159       C  0.47060888  0.94770472  0.61021913     0.99270
C1160       C  0.06079916  0.54224767  0.61124879     0.94150
O1161       O  0.04657856  0.55628451  0.61675115    -0.81960
C1162       C  0.19985017  0.52228776  0.50232376     0.03510
C1163       C  0.17688181  0.00760525  0.48653174    -0.12640
C1164       C  0.18294683  0.99466618  0.46836766     0.01010
C1165       C  0.21237963  0.99764148  0.46561873    -0.11160
C1166       C  0.23543955  0.51110395  0.48163844     0.03500
C1167       C  0.22823821  0.52282699  0.50022121    -0.10580
H1168       H  0.15458778  0.00642355  0.48831944     0.09100
H1169       H  0.21646176  0.98885225  0.45079909     0.06630
H1170       H  0.24430179  0.53263205  0.51345838     0.06470
C1171       C  0.29805227  0.49199595  0.46356860     0.03510
C1172       C  0.31982206  0.50586148  0.48013089    -0.12640
C1173       C  0.31584863  0.52383052  0.49607250     0.01010
C1174       C  0.29042675  0.52876821  0.49413684    -0.11160
C1175       C  0.26590996  0.51140551  0.47966506     0.03500
C1176       C  0.27052462  0.49328786  0.46412962    -0.10580
H1177       H  0.33919622  0.50169338  0.48065679     0.09100
H1178       H  0.29001590  0.54635636  0.50405703     0.06630
H1179       H  0.25306771  0.97970029  0.45233291     0.06470
C1180       C  0.01232991  0.70261747  0.46543974     0.03510
C1181       C  0.49214830  0.67907482  0.47963255    -0.12640
C1182       C  0.47606897  0.68511373  0.49569562     0.01010
C1183       C  0.47640569  0.71343908  0.49563408    -0.11160
C1184       C  0.49587855  0.73759988  0.48146370     0.03500
C1185       C  0.01505783  0.73221358  0.46739132    -0.10580
H1186       H  0.48838102  0.65577034  0.47837870     0.09100
H1187       H  0.46170623  0.71620359  0.50716251     0.06630
H1188       H  0.03277764  0.75140106  0.45826986     0.06470
C1189       C  0.49317217  0.80879079  0.50256734     0.03510
C1190       C  0.48804109  0.77843792  0.50050322    -0.12640
C1191       C  0.99812886  0.76898017  0.48229299     0.01010
C1192       C  0.01050789  0.78995354  0.46489312    -0.11160
C1193       C  0.01793588  0.82122296  0.46704895     0.03500
C1194       C  0.01120844  0.83059312  0.48678687    -0.10580
H1195       H  0.47582823  0.76217317  0.51311665     0.09100
H1196       H  0.01423300  0.78182471  0.44963896     0.06630
H1197       H  0.01978157  0.85488101  0.48998387     0.06470
C1198       C  0.32142198  0.80248023  0.49785821     0.03510
C1199       C  0.29168285  0.77590432  0.49821308    -0.12640
C1200       C  0.26924031  0.77049178  0.48219736     0.01010
C1201       C  0.27838997  0.79303739  0.46554853    -0.11160
C1202       C  0.30827864  0.81938181  0.46496618     0.03500
C1203       C  0.32957379  0.82386561  0.48109700    -0.10580
H1204       H  0.28661116  0.76027915  0.51152767     0.09100
H1205       H  0.26246436  0.79166402  0.45330549     0.06630
H1206       H  0.35245447  0.84447855  0.48078241     0.06470
C1207       C  0.19640576  0.69488608  0.50147192     0.03510
C1208       C  0.22641244  0.72120027  0.50085113    -0.12640
C1209       C  0.23656345  0.74235857  0.48324118     0.01010
C1210       C  0.21498432  0.73580117  0.46637449    -0.11160
C1211       C  0.18477477  0.71007798  0.46720210     0.03500
C1212       C  0.17568826  0.68993233  0.48476076    -0.10580
H1213       H  0.24154019  0.72387433  0.51402834     0.09100
H1214       H  0.22109909  0.74979797  0.45203957     0.06630
H1215       H  0.15234861  0.67002596  0.48531740     0.06470
C1216       C  0.09086893  0.91852705  0.40283477    -0.02110
C1217       C  0.09011905  0.68409503  0.40140541    -0.02110
C1218       C  0.32102383  0.91435794  0.40386708    -0.02110
O1219       O  0.04806535  0.49871964  0.34142736    -0.81420
C1220       C  0.43983344  0.97262275  0.29935745     0.97940
O1221       O  0.45666752  0.96052095  0.30217392    -0.70530
O1222       O  0.00829414  0.95932456  0.30881148    -0.74120
Al1223     Al  0.48001893  0.96398710  0.32716368     1.48980
C1224       C  0.02914400  0.97765783  0.29603068     0.93190
O1225       O  0.04384548  0.55968832  0.30721408    -0.80350
O1226       O  0.00730134  0.55886119  0.34507807    -0.73900
Al1227     Al  0.04116301  0.52695905  0.32447946     1.90120
O1228       O  0.99554586  0.54746562  0.30150588    -0.72970
O1229       O  0.45638934  0.00497330  0.35418269    -0.72820
O1230       O  0.44380218  0.49551009  0.31065679    -0.78480
O1231       O  0.44662153  0.95831607  0.34526830    -0.76690
O1232       O  0.99966204  0.50546635  0.32668712    -1.12820
O1233       O  0.00160156  0.96296252  0.35214166    -0.72010
C1234       C  0.03087811  0.97535653  0.35304465     0.98700
C1235       C  0.02415752  0.56352164  0.29707913     0.95100
Al1236     Al  0.47778140  0.52508532  0.32783182     1.55560
O1237       O  0.04110839  0.50668295  0.29818148    -0.76640
C1238       C  0.44024080  0.97579285  0.35620209     0.99270
C1239       C  0.03272431  0.56572894  0.35409970     0.94150
O1240       O  0.04635135  0.55051778  0.35004094    -0.81960
C1241       C  0.42105482  0.85206655  0.73346742    -0.02110
C1242       C  0.15339031  0.57866899  0.73585408    -0.02110
C1243       C  0.42256696  0.58559216  0.73574427    -0.02110
O1244       O  0.28833224  0.62949370  0.68706453    -0.81420
C1245       C  0.36478841  0.73151069  0.63203097     0.97940
O1246       O  0.34135919  0.72683176  0.64285669    -0.70530
O1247       O  0.29212886  0.67351776  0.63345860    -0.74120
Al1248     Al  0.31176998  0.69287115  0.65971117     1.49160
C1249       C  0.27573249  0.64456225  0.63050190     0.93190
O1250       O  0.33104216  0.62557850  0.63701797    -0.80350
O1251       O  0.37709678  0.67386650  0.68611247    -0.73900
Al1252     Al  0.31108129  0.63045341  0.66179993     1.90120
O1253       O  0.37846916  0.66395667  0.64277095    -0.72970
O1254       O  0.37773728  0.72635610  0.67816612    -0.72820
O1255       O  0.37735129  0.71524006  0.63503456    -0.78480
O1256       O  0.32974429  0.71464147  0.68589434    -0.76690
O1257       O  0.33242958  0.67203265  0.66070266    -1.12820
O1258       O  0.27658946  0.66407004  0.67602720    -0.72010
C1259       C  0.27113657  0.64140028  0.68788044     0.98700
C1260       C  0.35978981  0.63940617  0.63284447     0.95100
Al1261     Al  0.37399764  0.69290892  0.66063828     1.55560
O1262       O  0.27837447  0.62572956  0.64280102    -0.76640
C1263       C  0.35874994  0.73165823  0.68837356     0.99270
C1264       C  0.36377574  0.64517427  0.68997726     0.94150
O1265       O  0.33908825  0.62637288  0.68039236    -0.81960
C1266       C  0.31680579  0.97274868  0.83239032     0.03510
C1267       C  0.31640381  0.94439671  0.83210164    -0.12640
C1268       C  0.33034523  0.93661835  0.81501086     0.01010
C1269       C  0.34666454  0.95968082  0.79911966    -0.11160
C1270       C  0.34707712  0.48812509  0.79924719     0.03500
C1271       C  0.33158278  0.49410051  0.81580596    -0.10580
H1272       H  0.30463056  0.92883886  0.84531117     0.09100
H1273       H  0.36014517  0.95666219  0.78676974     0.06630
H1274       H  0.33083298  0.51551806  0.81588040     0.06470
C1275       C  0.34674537  0.87164983  0.79881709     0.03510
C1276       C  0.34428083  0.89835456  0.79782899    -0.12640
C1277       C  0.32924801  0.90558621  0.81432880     0.01010
C1278       C  0.31347384  0.88270449  0.83035365    -0.11160
C1279       C  0.31751731  0.85668029  0.83249246     0.03500
C1280       C  0.33522238  0.85208105  0.81666184    -0.10580
H1281       H  0.35481791  0.91311765  0.78406213     0.09100
H1282       H  0.29721220  0.88438222  0.84087977     0.06630
H1283       H  0.34023908  0.83333477  0.81784871     0.06470
C1284       C  0.14562551  0.97029086  0.83295717     0.03510
C1285       C  0.15471199  0.98953116  0.81450977    -0.12640
C1286       C  0.13477240  0.98130385  0.79667263     0.01010
C1287       C  0.10732340  0.95258015  0.79640348    -0.11160
C1288       C  0.09712212  0.93377402  0.81479694     0.03500
C1289       C  0.11578774  0.94375700  0.83329921    -0.10580
H1290       H  0.17675422  0.51104238  0.81403193     0.09100
H1291       H  0.09345897  0.94572195  0.78187785     0.06630
H1292       H  0.10697367  0.93083050  0.84811378     0.06470
C1293       C  0.01556934  0.87094016  0.79880019     0.03510
C1294       C  0.04257867  0.90011336  0.80130969    -0.12640
C1295       C  0.06689599  0.90403016  0.81474050     0.01010
C1296       C  0.06230529  0.87927482  0.82789678    -0.11160
C1297       C  0.03273324  0.85287418  0.83001248     0.03500
C1298       C  0.50969916  0.84867932  0.81499923    -0.10580
H1299       H  0.04481417  0.92030824  0.79341209     0.09100
H1300       H  0.08172579  0.88088768  0.83675984     0.06630
H1301       H  0.48706986  0.82852696  0.81655772     0.06470
C1302       C  0.13932866  0.66243110  0.79587473     0.03510
C1303       C  0.11090541  0.66217358  0.79583789    -0.12640
C1304       C  0.10438664  0.67893756  0.81152243     0.01010
C1305       C  0.12713523  0.69543848  0.82726556    -0.11160
C1306       C  0.15483429  0.69446925  0.82806269     0.03500
C1307       C  0.16113695  0.67864909  0.81197789    -0.10580
H1308       H  0.09373739  0.64772890  0.78405136     0.09100
H1309       H  0.12357173  0.70898664  0.83933500     0.06630
H1310       H  0.18297597  0.67866825  0.81202845     0.06470
C1311       C  0.03503889  0.68655283  0.83122957     0.03510
C1312       C  0.51517797  0.67487096  0.81348111    -0.12640
C1313       C  0.52447958  0.66543908  0.79488069     0.01010
C1314       C  0.05460045  0.66960680  0.79384167    -0.11160
C1315       C  0.07378316  0.67835563  0.81210722     0.03500
C1316       C  0.06317658  0.68631861  0.83092540    -0.10580
H1317       H  0.49269241  0.67341071  0.81413974     0.09100
H1318       H  0.06260913  0.66544239  0.77866514     0.06630
H1319       H  0.07648753  0.69282045  0.84561995     0.06470
C1320       C  0.24434602  0.76032094  0.89697149    -0.02110
C1321       C  0.24189954  0.99411669  0.89678229    -0.02110
C1322       C  0.01159440  0.75888606  0.89594389    -0.02110
O1323       O  0.28560353  0.61836727  0.95693063    -0.81420
C1324       C  0.39270301  0.69952322  0.00128733     0.97940
O1325       O  0.37648997  0.67054990  0.99821076    -0.70530
O1326       O  0.32415198  0.61802320  0.99099550    -0.74120
Al1327     Al  0.35317270  0.65071503  0.97291561     1.48980
C1328       C  0.30192544  0.61470010  0.00276419     0.93190
O1329       O  0.28902299  0.68295376  0.99192970    -0.80350
O1330       O  0.32654942  0.71894466  0.95496312    -0.73900
Al1331     Al  0.29198506  0.65295346  0.97435538     1.90120
O1332       O  0.33730954  0.71835347  0.99853213    -0.72970
O1333       O  0.37746334  0.71562410  0.94655743    -0.72820
O1334       O  0.38869684  0.71825271  0.98998000    -0.78480
O1335       O  0.38673803  0.67835758  0.95503048    -0.76690
O1336       O  0.33358688  0.67267389  0.97312042    -1.12820
O1337       O  0.33224355  0.62813578  0.94757253    -0.72010
C1338       C  0.30303612  0.61221953  0.94553579     0.98700
C1339       C  0.30866897  0.70610207  0.00254125     0.95100
Al1340     Al  0.35551164  0.71414596  0.97246723     1.55560
O1341       O  0.29025179  0.63188625  0.00027030    -0.76640
C1342       C  0.39332149  0.70229509  0.94420780     0.99270
C1343       C  0.30152712  0.70054062  0.94540317     0.94150
O1344       O  0.28814852  0.67170283  0.94887605    -0.81960
C1345       C  0.45851927  0.75504676  0.90568285    -0.20920
C1346       C  0.47889933  0.74279328  0.90684489    -0.08970
C1347       C  0.46976781  0.71673188  0.92029600     0.29890
C1348       C  0.44141081  0.70311587  0.93132020    -0.20920
C1349       C  0.42134937  0.71538762  0.93005023    -0.08980
C1350       C  0.43019053  0.74151050  0.91696384     0.29900
F1351       F  0.41196580  0.75461985  0.91546719    -0.19500
H1352       H  0.46460318  0.77588532  0.89666849     0.18260
H1353       H  0.43571675  0.68334503  0.94155113     0.18270
F1354       F  0.48851648  0.70444149  0.92307191    -0.19490
C1355       C  0.25593528  0.56685440  0.92980660    -0.20920
C1356       C  0.28845788  0.58485164  0.93081119    -0.08970
C1357       C  0.30611257  0.57491278  0.91898508     0.29890
C1358       C  0.29146762  0.54688652  0.90740342    -0.20920
C1359       C  0.25868566  0.52715134  0.90768728    -0.08980
C1360       C  0.24127579  0.53878498  0.91852036     0.29900
F1361       F  0.20968852  0.52230475  0.91907364    -0.19500
H1362       H  0.24149133  0.57395486  0.93842806     0.18260
H1363       H  0.30654163  0.54097552  0.89864669     0.18270
F1364       F  0.33766456  0.59179256  0.91896917    -0.19490
C1365       C  0.24151937  0.71514010  0.91865146    -0.20920
C1366       C  0.26016999  0.74355908  0.90779023    -0.08970
C1367       C  0.29301465  0.75727795  0.90987071     0.29890
C1368       C  0.30594303  0.74222384  0.92112142    -0.20920
C1369       C  0.28712803  0.71356588  0.93110947    -0.08980
C1370       C  0.25465304  0.69995336  0.92966665     0.29900
F1371       F  0.23553035  0.67290480  0.94000199    -0.19500
H1372       H  0.21644415  0.70467889  0.91868842     0.18260
H1373       H  0.33101593  0.75369171  0.92266355     0.18270
F1374       F  0.31320932  0.78630009  0.90267163    -0.19490
C1375       C  0.05184458  0.73246147  0.85471035    -0.20920
C1376       C  0.02856016  0.70249660  0.84904519    -0.08970
C1377       C  0.49945694  0.68963062  0.85936132     0.29890
C1378       C  0.49385076  0.70679950  0.87494400    -0.20920
C1379       C  0.01722455  0.73725820  0.88065988    -0.08980
C1380       C  0.04636153  0.74969172  0.86996715     0.29900
F1381       F  0.06972166  0.77899140  0.87415670    -0.19500
H1382       H  0.07427387  0.74313224  0.84669257     0.18260
H1383       H  0.47069863  0.69644458  0.88166349     0.18270
F1384       F  0.47636645  0.66057696  0.85429962    -0.19490
C1385       C  0.18325258  0.73937652  0.85273827    -0.20920
C1386       C  0.17692339  0.70994570  0.84594629    -0.08970
C1387       C  0.19119326  0.69544464  0.85663384     0.29890
C1388       C  0.21222209  0.71072232  0.87333721    -0.20920
C1389       C  0.21872881  0.74044913  0.88034813    -0.08980
C1390       C  0.20336638  0.75424834  0.86972995     0.29900
F1391       F  0.20842490  0.78277528  0.87554066    -0.19500
H1392       H  0.17290115  0.75126921  0.84466086     0.18260
H1393       H  0.22403802  0.69941300  0.87995555     0.18270
F1394       F  0.18471355  0.66637218  0.85106912    -0.19490
C1395       C  0.50286770  0.79862045  0.84533345    -0.20920
C1396       C  0.02622907  0.82985158  0.84765854    -0.08970
C1397       C  0.04313147  0.83871535  0.86712581     0.29890
C1398       C  0.03897333  0.81655114  0.88249039    -0.20920
C1399       C  0.01541688  0.78516156  0.88036870    -0.08980
C1400       C  0.49666020  0.77705671  0.86163761     0.29900
F1401       F  0.47297532  0.74758343  0.85853583    -0.19500
H1402       H  0.48940791  0.79022253  0.83072699     0.18260
H1403       H  0.05526899  0.82472072  0.89558228     0.18270
F1404       F  0.06371403  0.86889592  0.87173239    -0.19490
C1405       C  0.18921779  0.50763598  0.85721080    -0.20920
C1406       C  0.16704592  0.97702764  0.85165672    -0.08970
C1407       C  0.16683153  0.95265918  0.86333966     0.29890
C1408       C  0.18819978  0.95879568  0.87973284    -0.20920
C1409       C  0.21232921  0.98924037  0.88438315    -0.08980
C1410       C  0.21204966  0.51380822  0.87269821     0.29900
F1411       F  0.23580463  0.54356557  0.87408265    -0.19500
H1412       H  0.19011335  0.52705688  0.84873175     0.18260
H1413       H  0.18668133  0.93878868  0.88748024     0.18270
F1414       F  0.14777892  0.92245068  0.85785578    -0.19490
C1415       C  0.29570085  0.80293809  0.84811193    -0.20920
C1416       C  0.30235938  0.83379675  0.85058939    -0.08970
C1417       C  0.29355266  0.84181445  0.87023626     0.29890
C1418       C  0.27535740  0.81895320  0.88534673    -0.20920
C1419       C  0.26796973  0.78778569  0.88259365    -0.08980
C1420       C  0.28028479  0.78086339  0.86409899     0.29900
F1421       F  0.27567342  0.75184447  0.86076161    -0.19500
H1422       H  0.30146595  0.79502788  0.83350860     0.18260
H1423       H  0.26661965  0.82622539  0.89870845     0.18270
F1424       F  0.30244302  0.87170995  0.87522493    -0.19490
C1425       C  0.30566918  0.97990980  0.87092939    -0.20920
C1426       C  0.29926431  0.97921350  0.84889047    -0.08970
C1427       C  0.27591462  0.98510751  0.84228974     0.29890
C1428       C  0.25881553  0.99104170  0.85732949    -0.20920
C1429       C  0.26391052  0.99111454  0.87985461    -0.08980
C1430       C  0.28856694  0.98613984  0.88625448     0.29900
F1431       F  0.29555603  0.98638725  0.90740465    -0.19500
H1432       H  0.32397930  0.97570018  0.87625776     0.18260
H1433       H  0.24116752  0.99488301  0.85054791     0.18270
F1434       F  0.26882663  0.98415101  0.82107711    -0.19490
C1435       C  0.38286815  0.52831374  0.74589527    -0.20920
C1436       C  0.40093136  0.55993870  0.75216375    -0.08970
C1437       C  0.39727845  0.56705297  0.77377401     0.29890
C1438       C  0.38060809  0.54366628  0.78871325    -0.20920
C1439       C  0.36469955  0.51233441  0.78265732    -0.08980
C1440       C  0.36526696  0.50490887  0.76083924     0.29900
F1441       F  0.34815141  0.97519556  0.75371648    -0.19500
H1442       H  0.38187127  0.52143703  0.72923556     0.18260
H1443       H  0.38026197  0.55040833  0.80527346     0.18270
F1444       F  0.40893807  0.59646072  0.78094498    -0.19490
C1445       C  0.47679841  0.60424567  0.75360421    -0.20920
C1446       C  0.45258408  0.61030378  0.74836606    -0.08970
C1447       C  0.45537659  0.63810601  0.75762430     0.29890
C1448       C  0.47984902  0.65696070  0.77143220    -0.20920
C1449       C  0.50203547  0.64888711  0.77726412    -0.08980
C1450       C  0.50055251  0.62261484  0.76776128     0.29900
F1451       F  0.02072487  0.61287201  0.77331751    -0.19500
H1452       H  0.47817416  0.58481405  0.74792892     0.18260
H1453       H  0.48040551  0.67719397  0.77848469     0.18270
F1454       F  0.43267313  0.64561347  0.75594959    -0.19490
C1455       C  0.42412330  0.63009739  0.71428348    -0.20920
C1456       C  0.40592856  0.60219121  0.72598687    -0.08970
C1457       C  0.37325508  0.59029639  0.72679800     0.29890
C1458       C  0.35995910  0.60538301  0.71594313    -0.20920
C1459       C  0.37841509  0.63279007  0.70440171    -0.08980
C1460       C  0.41074861  0.64546259  0.70406903     0.29900
F1461       F  0.42931043  0.67140232  0.69243621    -0.19500
H1462       H  0.44898409  0.63959442  0.71258601     0.18260
H1463       H  0.33487804  0.59504506  0.71603959     0.18270
F1464       F  0.35339973  0.56328840  0.73680155    -0.19490
C1465       C  0.12079523  0.53399939  0.76099744    -0.20920
C1466       C  0.14868303  0.54993296  0.74895812    -0.08970
C1467       C  0.17007706  0.53891436  0.75051270     0.29890
C1468       C  0.16592274  0.51688317  0.76625302    -0.20920
C1469       C  0.13957699  0.50393759  0.77960392    -0.08980
C1470       C  0.11653106  0.51189963  0.77628433     0.29900
F1471       F  0.09037967  0.49937797  0.78863310    -0.19500
H1472       H  0.10306920  0.54054213  0.75970344     0.18260
H1473       H  0.18300542  0.50952857  0.76779392     0.18270
F1474       F  0.19425257  0.54806738  0.73665019    -0.19490
C1475       C  0.14663213  0.64831066  0.75826363    -0.20920
C1476       C  0.14518776  0.64312312  0.78054191    -0.08970
C1477       C  0.15038984  0.61979538  0.78840758     0.29890
C1478       C  0.15484375  0.60064454  0.77424281    -0.20920
C1479       C  0.15281599  0.60302147  0.75160210    -0.08980
C1480       C  0.15155856  0.62923250  0.74394568     0.29900
F1481       F  0.15337257  0.63542625  0.72254006    -0.19500
H1482       H  0.14404266  0.66719832  0.75198323     0.18260
H1483       H  0.15970423  0.58378577  0.78145088     0.18270
F1484       F  0.15036066  0.61492397  0.80993341    -0.19490
C1485       C  0.24210665  0.62277372  0.72297797    -0.20920
C1486       C  0.24227413  0.62693541  0.70066395    -0.08970
C1487       C  0.21420580  0.61796493  0.69011235     0.29890
C1488       C  0.18620619  0.60329033  0.70136147    -0.20920
C1489       C  0.18499718  0.59646730  0.72360386    -0.08980
C1490       C  0.21388836  0.60883198  0.73450948     0.29900
F1491       F  0.21481276  0.60627703  0.75622023    -0.19500
H1492       H  0.26379664  0.63074082  0.73148965     0.18260
H1493       H  0.16560540  0.59780585  0.69226240     0.18270
F1494       F  0.21375923  0.62284807  0.66862200    -0.19490
C1495       C  0.47819884  0.88037520  0.74742961    -0.20920
C1496       C  0.44877605  0.85264515  0.74644013    -0.08970
C1497       C  0.44432837  0.82957894  0.76180893     0.29890
C1498       C  0.46589755  0.83553695  0.77813437    -0.20920
C1499       C  0.49370112  0.86420819  0.77996029    -0.08980
C1500       C  0.50055379  0.88531285  0.76278830     0.29900
F1501       F  0.02876560  0.91108814  0.76009271    -0.19500
H1502       H  0.48418476  0.90023978  0.73740741     0.18260
H1503       H  0.45979197  0.81682778  0.78930904     0.18270
F1504       F  0.41874527  0.80126850  0.76252392    -0.19490
C1505       C  0.41377697  0.87279394  0.77011609    -0.20920
C1506       C  0.40056122  0.85689672  0.75048965    -0.08970
C1507       C  0.36898627  0.84790919  0.74664328     0.29890
C1508       C  0.35130115  0.85231417  0.76249262    -0.20920
C1509       C  0.36470385  0.86622595  0.78222908    -0.08980
C1510       C  0.39606411  0.87676478  0.78580780     0.29900
F1511       F  0.40979550  0.89156487  0.80445147    -0.19500
H1512       H  0.43812712  0.88268734  0.77374786     0.18260
H1513       H  0.32719626  0.84513543  0.75930508     0.18270
F1514       F  0.35540941  0.83582595  0.72738770    -0.19490
C1515       C  0.38775458  0.78828337  0.68822361    -0.20920
C1516       C  0.37127780  0.76114301  0.70015573    -0.08970
C1517       C  0.36564985  0.76337461  0.72197887     0.29890
C1518       C  0.37989742  0.79265915  0.73206063    -0.20920
C1519       C  0.40104126  0.82031591  0.72093047    -0.08980
C1520       C  0.40051028  0.81730009  0.69798327     0.29900
F1521       F  0.40877154  0.84122978  0.68420654    -0.19500
H1522       H  0.38937979  0.78702281  0.67084623     0.18260
H1523       H  0.37371817  0.79359978  0.74865458     0.18270
F1524       F  0.34691722  0.73746537  0.73355867    -0.19490
C1525       C  0.35559431  0.92389918  0.36995885    -0.20920
C1526       C  0.35323515  0.93053441  0.39186763    -0.08970
C1527       C  0.38169528  0.95046861  0.40260156     0.29890
C1528       C  0.41000587  0.96634413  0.39109260    -0.20920
C1529       C  0.41108431  0.96091439  0.36900871    -0.08980
C1530       C  0.38369870  0.93894492  0.35875604     0.29900
F1531       F  0.38399131  0.93213195  0.33756484    -0.19500
H1532       H  0.33576791  0.90653900  0.36112347     0.18260
H1533       H  0.43116125  0.98218267  0.39953386     0.18270
F1534       F  0.38217674  0.95507610  0.42418787    -0.19490
C1535       C  0.07942424  0.61442054  0.36664033    -0.20920
C1536       C  0.04741140  0.59344257  0.36825657    -0.08970
C1537       C  0.02913154  0.60143522  0.38111695     0.29890
C1538       C  0.04259895  0.62985405  0.39208835    -0.20920
C1539       C  0.07487601  0.65141498  0.39059343    -0.08980
C1540       C  0.09290723  0.64320270  0.37721235     0.29900
F1541       F  0.12380467  0.66311004  0.37440988    -0.19500
H1542       H  0.09384416  0.60915257  0.35631244     0.18260
H1543       H  0.02705749  0.63507618  0.40101920     0.18270
F1544       F  0.99795890  0.58192829  0.38278372    -0.19490
C1545       C  0.04168416  0.92098606  0.39044279    -0.20920
C1546       C  0.07438615  0.93356146  0.39034341    -0.08970
C1547       C  0.09186036  0.95904939  0.37636422     0.29890
C1548       C  0.07771284  0.97289428  0.36497612    -0.20920
C1549       C  0.04553644  0.96149870  0.36652974    -0.08980
C1550       C  0.02763892  0.93517492  0.37935298     0.29900
F1551       F  0.99630389  0.92243721  0.38083149    -0.19500
H1552       H  0.02616005  0.89949786  0.39849088     0.18260
H1553       H  0.09211953  0.99244491  0.35462221     0.18270
F1554       F  0.12296474  0.97094910  0.37387621    -0.19490
C1555       C  0.14624026  0.67408220  0.44030860    -0.20920
C1556       C  0.16248133  0.70377697  0.44953120    -0.08970
C1557       C  0.15573690  0.72661203  0.44285483     0.29890
C1558       C  0.13313439  0.71974659  0.42723988    -0.20920
C1559       C  0.11698547  0.69016386  0.41719385    -0.08980
C1560       C  0.12350957  0.66700576  0.42463699     0.29900
F1561       F  0.10666152  0.63686818  0.41848318    -0.19500
H1562       H  0.15061075  0.65591580  0.44573129     0.18260
H1563       H  0.12781243  0.73771187  0.42303180     0.18270
F1564       F  0.16987920  0.75515170  0.45220284    -0.19490
C1565       C  0.32532970  0.89636472  0.44224123    -0.20920
C1566       C  0.32240924  0.89081705  0.41971365    -0.08970
C1567       C  0.32200531  0.86358677  0.41239154     0.29890
C1568       C  0.31737279  0.84010667  0.42704474    -0.20920
C1569       C  0.31591744  0.84455336  0.44927458    -0.08980
C1570       C  0.32153595  0.87347244  0.45674546     0.29900
F1571       F  0.32197262  0.87917618  0.47819696    -0.19500
H1572       H  0.32981638  0.91825797  0.44905426     0.18260
H1573       H  0.31452126  0.81834110  0.42105491     0.18270
F1574       F  0.32326409  0.85845072  0.39101951    -0.19490
C1575       C  0.04964703  0.89443469  0.43250951    -0.20920
C1576       C  0.06779445  0.89003237  0.41683879    -0.08970
C1577       C  0.06852638  0.86176266  0.41799746     0.29890
C1578       C  0.05224511  0.83992610  0.43406590    -0.20920
C1579       C  0.03351554  0.84420940  0.44912551    -0.08980
C1580       C  0.03130001  0.87135418  0.44732880     0.29900
F1581       F  0.51135774  0.87597483  0.45967360    -0.19500
H1582       H  0.04952953  0.91615739  0.43319923     0.18260
H1583       H  0.05582625  0.82023260  0.43514650     0.18270
F1584       F  0.08765423  0.85608623  0.40554799    -0.19490
C1585       C  0.04035810  0.71495268  0.42986668    -0.20920
C1586       C  0.03053476  0.69669129  0.44861317    -0.08970
C1587       C  0.03921660  0.67383219  0.45105411     0.29890
C1588       C  0.05569086  0.66878062  0.43480057    -0.20920
C1589       C  0.06695543  0.68802490  0.41638069    -0.08980
C1590       C  0.05986059  0.71233957  0.41485376     0.29900
F1591       F  0.07333250  0.73567555  0.40032748    -0.19500
H1592       H  0.03414113  0.73259421  0.42696481     0.18260
H1593       H  0.06151323  0.65072927  0.43728258     0.18270
F1594       F  0.03382967  0.65748040  0.46957431    -0.19490
C1595       C  0.28089385  0.94239144  0.44409706    -0.20920
C1596       C  0.30274743  0.97381957  0.44659150    -0.08970
C1597       C  0.32867922  0.98757258  0.43277350     0.29890
C1598       C  0.33358897  0.96947121  0.41759862    -0.20920
C1599       C  0.31372720  0.93690757  0.41684765    -0.08980
C1600       C  0.28599459  0.92419306  0.42939628     0.29900
F1601       F  0.26486369  0.89338917  0.42885584    -0.19500
H1602       H  0.26034511  0.93154593  0.45425091     0.18260
H1603       H  0.35333002  0.98117866  0.40692373     0.18270
F1604       F  0.34924663  0.51855475  0.43392008    -0.19490
C1605       C  0.12991596  0.92827229  0.43247738    -0.20920
C1606       C  0.11512079  0.94070134  0.41972430    -0.08970
C1607       C  0.12174251  0.97141424  0.42482194     0.29890
C1608       C  0.14358328  0.98886933  0.44077093    -0.20920
C1609       C  0.15835491  0.97606248  0.45260210    -0.08980
C1610       C  0.15062418  0.94531634  0.44874476     0.29900
F1611       F  0.16310458  0.93161441  0.46087877    -0.19500
H1612       H  0.12561200  0.90497069  0.42970591     0.18260
H1613       H  0.15017519  0.51314369  0.44312492     0.18270
F1614       F  0.10713447  0.98496428  0.41521712    -0.19490
C1615       C  0.10073034  0.53127730  0.68820286    -0.20920
C1616       C  0.07923768  0.54161014  0.68717206    -0.08970
C1617       C  0.07925756  0.56132837  0.70339879     0.29890
C1618       C  0.10146566  0.57173875  0.71980353    -0.20920
C1619       C  0.12562328  0.56447073  0.71966059    -0.08980
C1620       C  0.12356700  0.54240440  0.70417455     0.29900
F1621       F  0.14479595  0.53279575  0.70380951    -0.19500
H1622       H  0.10063439  0.51548660  0.67608458     0.18260
H1623       H  0.09931769  0.58549401  0.73243470     0.18270
F1624       F  0.05740080  0.57013436  0.70360379    -0.19490
C1625       C  0.44096477  0.56295695  0.67882191    -0.20920
C1626       C  0.45681308  0.54765015  0.68484329    -0.08970
C1627       C  0.45697165  0.54009493  0.70639183     0.29890
C1628       C  0.44334067  0.54992753  0.72188920    -0.20920
C1629       C  0.43189868  0.57026518  0.71685833    -0.08980
C1630       C  0.42798014  0.57354968  0.69436122     0.29900
F1631       F  0.41001830  0.58469795  0.68663825    -0.19500
H1632       H  0.43840023  0.56652814  0.66190242     0.18260
H1633       H  0.44194182  0.54151651  0.73814850     0.18270
F1634       F  0.46952330  0.52247299  0.71238450    -0.19490
C1635       C  0.42417838  0.90132594  0.71572208    -0.20920
C1636       C  0.43466757  0.87959784  0.71697843    -0.08970
C1637       C  0.45829516  0.88338973  0.70216327     0.29890
C1638       C  0.46962374  0.90671764  0.68659382    -0.20920
C1639       C  0.45793797  0.92711697  0.68493743    -0.08980
C1640       C  0.43536988  0.92446413  0.69989975     0.29900
F1641       F  0.42381786  0.94410249  0.69927098    -0.19500
H1642       H  0.40679412  0.90055001  0.72659986     0.18260
H1643       H  0.48710294  0.90817734  0.67539144     0.18270
F1644       F  0.46939582  0.86333544  0.70213205    -0.19490
C1645       C  0.20355253  0.59286933  0.59786085    -0.20920
C1646       C  0.20608865  0.61225870  0.58040294    -0.08970
C1647       C  0.23453152  0.64086028  0.57839704     0.29890
C1648       C  0.25676290  0.65112807  0.59479733    -0.20920
C1649       C  0.25258905  0.63262162  0.61289139    -0.08980
C1650       C  0.22613117  0.60289462  0.61394940     0.29900
F1651       F  0.22145112  0.58377481  0.63086975    -0.19500
H1652       H  0.18330949  0.56992659  0.59937738     0.18260
H1653       H  0.27778803  0.67346742  0.59307199     0.18270
F1654       F  0.24223414  0.65846375  0.56033629    -0.19490
C1655       C  0.17426623  0.63942168  0.51172503    -0.20920
C1656       C  0.18763159  0.67050401  0.51819549    -0.08970
C1657       C  0.19275800  0.67750662  0.54028303     0.29890
C1658       C  0.18726039  0.65408717  0.55519559    -0.20920
C1659       C  0.17889733  0.62381139  0.54819167    -0.08980
C1660       C  0.16902610  0.61625347  0.52646839     0.29900
F1661       F  0.15506867  0.58658448  0.51904915    -0.19500
H1662       H  0.16874254  0.63303624  0.49494744     0.18260
H1663       H  0.19191589  0.66031100  0.57202732     0.18270
F1664       F  0.20340040  0.70695719  0.54740753    -0.19490
C1665       C  0.21123575  0.58995070  0.53607842    -0.20920
C1666       C  0.18557090  0.57655676  0.55042542    -0.08970
C1667       C  0.16817766  0.54362103  0.55135417     0.29890
C1668       C  0.17256070  0.52574290  0.53561190    -0.20920
C1669       C  0.19588732  0.54010074  0.51990445    -0.08980
C1670       C  0.21610493  0.57219055  0.52093897     0.29900
F1671       F  0.23967158  0.58669867  0.50647132    -0.19500
H1672       H  0.22647850  0.61482453  0.53546894     0.18260
H1673       H  0.15801414  0.00066227  0.53584377     0.18270
F1674       F  0.14803381  0.52844518  0.56768471    -0.19490
C1675       C  0.11500520  0.58428742  0.60606048    -0.20920
C1676       C  0.08886046  0.55833664  0.59760768    -0.08970
C1677       C  0.09086904  0.54746211  0.57714162     0.29890
C1678       C  0.11924386  0.56175144  0.56580381    -0.20920
C1679       C  0.14694875  0.58510611  0.57549822    -0.08980
C1680       C  0.14350295  0.59782295  0.59519184     0.29900
F1681       F  0.16751089  0.62351491  0.60417458    -0.19500
H1682       H  0.11357832  0.59363396  0.62155717     0.18260
H1683       H  0.11969703  0.55342512  0.54977471     0.18270
F1684       F  0.06546837  0.52313658  0.56813389    -0.19490
C1685       C  0.37379380  0.58523138  0.59693967    -0.20920
C1686       C  0.39627741  0.60619168  0.58217562    -0.08970
C1687       C  0.40902691  0.63848646  0.58664227     0.29890
C1688       C  0.39684061  0.64858097  0.60303054    -0.20920
C1689       C  0.37220082  0.62742919  0.61592047    -0.08980
C1690       C  0.36104184  0.59552610  0.61303751     0.29900
F1691       F  0.33839731  0.57435394  0.62610322    -0.19500
H1692       H  0.36512194  0.56052316  0.59537794     0.18260
H1693       H  0.40681261  0.67333871  0.60562192     0.18270
F1694       F  0.43440622  0.66090095  0.57622252    -0.19490
C1695       C  0.45852382  0.62740028  0.54097815    -0.20920
C1696       C  0.42810980  0.61984994  0.54715948    -0.08970
C1697       C  0.41410599  0.63452312  0.53588390     0.29890
C1698       C  0.42957905  0.65516722  0.51914346    -0.20920
C1699       C  0.45954077  0.66222350  0.51305164    -0.08980
C1700       C  0.47410710  0.64847011  0.52430004     0.29900
F1701       F  0.00360943  0.65560117  0.51931193    -0.19500
H1702       H  0.47015788  0.61631811  0.54827046     0.18260
H1703       H  0.41783873  0.66539579  0.51071035     0.18270
F1704       F  0.38490951  0.62837813  0.54086536    -0.19490
C1705       C  0.35002161  0.56115884  0.55052881    -0.20920
C1706       C  0.38156054  0.56950689  0.54834901    -0.08970
C1707       C  0.38989305  0.55880840  0.52958226     0.29890
C1708       C  0.36882395  0.54437057  0.51284133    -0.20920
C1709       C  0.33785134  0.53754135  0.51468570    -0.08980
C1710       C  0.32833549  0.54424633  0.53452984     0.29900
F1711       F  0.29800900  0.53469586  0.53873136    -0.19500
H1712       H  0.34156327  0.56850887  0.56399764     0.18260
H1713       H  0.37749163  0.53959904  0.49816992     0.18270
F1714       F  0.41939633  0.56448436  0.52662813    -0.19490
C1715       C  0.46703728  0.58373611  0.59827085    -0.20920
C1716       C  0.45620581  0.55167866  0.59710452    -0.08970
C1717       C  0.43002433  0.53316555  0.58430805     0.29890
C1718       C  0.41484479  0.54636995  0.57340334    -0.20920
C1719       C  0.42561425  0.57869159  0.57434501    -0.08980
C1720       C  0.45194018  0.59699808  0.58735884     0.29900
F1721       F  0.46312026  0.62793600  0.58974066    -0.19500
H1722       H  0.48681807  0.59866469  0.60825748     0.18260
H1723       H  0.39399650  0.53058126  0.56474975     0.18270
F1724       F  0.41828814  0.50200708  0.58278631    -0.19490
C1725       C  0.40885006  0.77902064  0.61551950    -0.20920
C1726       C  0.37721969  0.75644769  0.61587693    -0.08970
C1727       C  0.35692545  0.75910685  0.60166027     0.29890
C1728       C  0.36841520  0.78245266  0.58615040    -0.20920
C1729       C  0.40075438  0.80351793  0.58389262    -0.08980
C1730       C  0.42035950  0.80304733  0.60027061     0.29900
F1731       F  0.45117570  0.82439040  0.60046173    -0.19500
H1732       H  0.42458583  0.77818598  0.62717611     0.18260
H1733       H  0.35139063  0.78364676  0.57608180     0.18270
F1734       F  0.32587580  0.73860356  0.60243620    -0.19490
C1735       C  0.35936748  0.83802044  0.52524914    -0.20920
C1736       C  0.34386007  0.80865892  0.51545238    -0.08970
C1737       C  0.35093714  0.78595026  0.52189833     0.29890
C1738       C  0.37301422  0.79256834  0.53788556    -0.20920
C1739       C  0.38837014  0.82177980  0.54847626    -0.08980
C1740       C  0.38163493  0.84487704  0.54123839     0.29900
F1741       F  0.39767969  0.87475932  0.54804565    -0.19500
H1742       H  0.35464805  0.85608676  0.52015420     0.18260
H1743       H  0.37844600  0.77466517  0.54206065     0.18270
F1744       F  0.33748890  0.75773137  0.51211180    -0.19490
C1745       C  0.46819556  0.79928837  0.53934482    -0.20920
C1746       C  0.47760777  0.81675785  0.52020474    -0.08970
C1747       C  0.46803471  0.83878990  0.51699021     0.29890
C1748       C  0.45006201  0.84299561  0.53242364    -0.20920
C1749       C  0.43838169  0.82380499  0.55084746    -0.08980
C1750       C  0.44719516  0.80091071  0.55352930     0.29900
F1751       F  0.43417390  0.77801450  0.56838944    -0.19500
H1752       H  0.47546268  0.78264700  0.54302751     0.18260
H1753       H  0.44351974  0.86038747  0.52928269     0.18270
F1754       F  0.47376024  0.85487775  0.49831497    -0.19490
C1755       C  0.46183517  0.88184802  0.57419114    -0.20920
C1756       C  0.42955810  0.86003719  0.57581532    -0.08970
C1757       C  0.41147947  0.86820557  0.58905938     0.29890
C1758       C  0.42479047  0.89715301  0.59923790    -0.20920
C1759       C  0.45669877  0.91880161  0.59711756    -0.08980
C1760       C  0.47507713  0.91081270  0.58437808     0.29900
F1761       F  0.50610985  0.93059895  0.58213546    -0.19500
H1762       H  0.47762714  0.87668660  0.56555945     0.18260
H1763       H  0.41001235  0.90226144  0.60929412     0.18270
F1764       F  0.38061158  0.84823862  0.59195163    -0.19490
C1765       C  0.14909474  0.90742306  0.36634107    -0.20920
C1766       C  0.12855122  0.88455674  0.35201247    -0.08970
C1767       C  0.09668837  0.87486729  0.35338632     0.29890
C1768       C  0.08567643  0.88666940  0.36941868    -0.20920
C1769       C  0.10580879  0.90834650  0.38480715    -0.08980
C1770       C  0.13823395  0.91969767  0.38224352     0.29900
F1771       F  0.16003073  0.94334054  0.39423705    -0.19500
H1772       H  0.17388421  0.91613965  0.36515894     0.18260
H1773       H  0.06089533  0.87811899  0.37025647     0.18270
F1774       F  0.07595345  0.85403620  0.33920363    -0.19490
C1775       C  0.09094969  0.73216917  0.35207041    -0.20920
C1776       C  0.12235448  0.75519754  0.35093123    -0.08970
C1777       C  0.14390225  0.75275078  0.36406148     0.29890
C1778       C  0.13398007  0.72902850  0.37915769    -0.20920
C1779       C  0.10201762  0.70758883  0.38233414    -0.08980
C1780       C  0.08095373  0.70793273  0.36707476     0.29900
F1781       F  0.05023181  0.68637297  0.36790976    -0.19500
H1782       H  0.07425006  0.73276998  0.34120501     0.18260
H1783       H  0.15185498  0.72796294  0.38830282     0.18270
F1784       F  0.17477128  0.77372321  0.36253514    -0.19490
C1785       C  0.24689827  0.85720109  0.37044646    -0.20920
C1786       C  0.24775054  0.87704539  0.35410675    -0.08970
C1787       C  0.27065135  0.90866002  0.35512807     0.29890
C1788       C  0.29272228  0.91962206  0.37153458    -0.20920
C1789       C  0.29373185  0.89958020  0.38723129    -0.08980
C1790       C  0.26891695  0.86821789  0.38708394     0.29900
F1791       F  0.26400619  0.84833213  0.40346877    -0.19500
H1792       H  0.22857387  0.83308997  0.37067552     0.18260
H1793       H  0.31014961  0.94408192  0.37156504     0.18270
F1794       F  0.27234914  0.92914600  0.34001308    -0.19490
C1795       C  0.04393335  0.93913077  0.28415221    -0.20920
C1796       C  0.04007057  0.96444175  0.27914051    -0.08970
C1797       C  0.04494557  0.97534185  0.25791536     0.29890
C1798       C  0.05480663  0.96181489  0.24222802    -0.20920
C1799       C  0.06259826  0.93885248  0.24761449    -0.08980
C1800       C  0.05461914  0.92615910  0.26869865     0.29900
F1801       F  0.05580296  0.90046128  0.27446172    -0.19500
H1802       H  0.03875568  0.92936397  0.30024186     0.18260
H1803       H  0.05756805  0.97034880  0.22591195     0.18270
F1804       F  0.03934898  0.99843822  0.25220718    -0.19490
C1805       C  0.11634206  0.92786622  0.25614827    -0.20920
C1806       C  0.09315799  0.91037237  0.24075334    -0.08970
C1807       C  0.08832103  0.88032911  0.23569061     0.29890
C1808       C  0.10284909  0.86730900  0.24776903    -0.20920
C1809       C  0.12398141  0.88428753  0.26417363    -0.08980
C1810       C  0.13128691  0.91517364  0.26774048     0.29900
F1811       F  0.15185445  0.93291360  0.28320039    -0.19500
H1812       H  0.12205978  0.95144504  0.25987860     0.18260
H1813       H  0.09783769  0.84393644  0.24407026     0.18270
F1814       F  0.07121007  0.86381781  0.21854136    -0.19490
C1815       C  0.04235600  0.60477124  0.24322813    -0.20920
C1816       C  0.06344984  0.63621716  0.24893281    -0.08970
C1817       C  0.07096490  0.64230455  0.27122533     0.29890
C1818       C  0.05745365  0.61848541  0.28648545    -0.20920
C1819       C  0.03571578  0.58808980  0.28054548    -0.08980
C1820       C  0.02819408  0.58127615  0.25877296     0.29900
F1821       F  0.50801272  0.55173123  0.25244596    -0.19500
H1822       H  0.03641541  0.59854728  0.22647515     0.18260
H1823       H  0.06414801  0.62385852  0.30323865     0.18270
F1824       F  0.09191491  0.67071707  0.27887284    -0.19490
C1825       C  0.05561359  0.67645912  0.19732909    -0.20920
C1826       C  0.04931754  0.65948291  0.21667484    -0.08970
C1827       C  0.01720231  0.64250221  0.22269511     0.29890
C1828       C  0.49375285  0.63724831  0.20785618    -0.20920
C1829       C  0.00129637  0.65035668  0.18717584    -0.08980
C1830       C  0.03267843  0.67114062  0.18250859     0.29900
F1831       F  0.04193692  0.68540002  0.16306395    -0.19500
H1832       H  0.07825681  0.69416468  0.19281724     0.18260
H1833       H  0.46963357  0.62305630  0.21265159     0.18270
F1834       F  0.50799577  0.63261479  0.24317654    -0.19490
C1835       C  0.07767603  0.70904244  0.24783784    -0.20920
C1836       C  0.09459721  0.69471262  0.24087495    -0.08970
C1837       C  0.12688301  0.71008101  0.24587978     0.29890
C1838       C  0.14129938  0.73890673  0.25638530    -0.20920
C1839       C  0.12404874  0.75271574  0.26317968    -0.08980
C1840       C  0.09199688  0.73746239  0.25860419     0.29900
F1841       F  0.07389477  0.74925702  0.26527430    -0.19500
H1842       H  0.05278791  0.69782122  0.24563294     0.18260
H1843       H  0.16574027  0.74951592  0.26036074     0.18270
F1844       F  0.14434028  0.69653393  0.24208006    -0.19490
C1845       C  0.39133166  0.92834921  0.25114301    -0.20920
C1846       C  0.36972892  0.93904352  0.24944924    -0.08970
C1847       C  0.36928174  0.95774544  0.26656328     0.29890
C1848       C  0.39200573  0.96850975  0.28268290    -0.20920
C1849       C  0.41505724  0.95996110  0.28282390    -0.08980
C1850       C  0.41393810  0.93909349  0.26713992     0.29900
F1851       F  0.43495753  0.92919620  0.26694549    -0.19500
H1852       H  0.39121875  0.91133425  0.24027028     0.18260
H1853       H  0.39158685  0.48371365  0.29506055     0.18270
F1854       F  0.34768224  0.96686960  0.26716431    -0.19490
C1855       C  0.37576747  0.00863040  0.20224383    -0.20920
C1856       C  0.35980877  0.99886796  0.18254635    -0.08970
C1857       C  0.33690316  0.96743781  0.18030883     0.29890
C1858       C  0.33057346  0.94680129  0.19718997    -0.20920
C1859       C  0.34892494  0.95551449  0.21610788    -0.08980
C1860       C  0.37161980  0.98737822  0.21838979     0.29900
F1861       F  0.39152805  0.99859128  0.23516526    -0.19500
H1862       H  0.39273978  0.53280650  0.20497191     0.18260
H1863       H  0.31282472  0.92278730  0.19464692     0.18270
F1864       F  0.32212708  0.95568701  0.16133450    -0.19490
C1865       C  0.29122123  0.92216772  0.23981283    -0.20920
C1866       C  0.31287778  0.91156046  0.24165043    -0.08970
C1867       C  0.30485919  0.88609182  0.25550026     0.29890
C1868       C  0.27663855  0.87194638  0.26667352    -0.20920
C1869       C  0.25554540  0.88288629  0.26485703    -0.08980
C1870       C  0.26296694  0.90792870  0.25103615     0.29900
F1871       F  0.24331713  0.91927404  0.24868227    -0.19500
H1872       H  0.29609523  0.94226297  0.23031683     0.18260
H1873       H  0.27181928  0.85287903  0.27738717     0.18270
F1874       F  0.32466228  0.87507333  0.25854444    -0.19490
C1875       C  0.38334284  0.90374764  0.18644134    -0.20920
C1876       C  0.36030774  0.87331734  0.18180008    -0.08970
C1877       C  0.33223557  0.85983555  0.19343432     0.29890
C1878       C  0.32732338  0.87680544  0.20942376    -0.20920
C1879       C  0.35066188  0.90746067  0.21458853    -0.08980
C1880       C  0.37872936  0.92064185  0.20242299     0.29900
F1881       F  0.40185938  0.95027964  0.20594984    -0.19500
H1882       H  0.40499264  0.91468572  0.17744604     0.18260
H1883       H  0.30481018  0.86580737  0.21714782     0.18270
F1884       F  0.30963688  0.83009662  0.18951283    -0.19490
C1885       C  0.02495499  0.87555181  0.22195410    -0.20920
C1886       C  0.04817532  0.90559629  0.21537284    -0.08970
C1887       C  0.04279301  0.91674340  0.19566063     0.29890
C1888       C  0.01999440  0.89668023  0.18143551    -0.20920
C1889       C  0.00018601  0.86566546  0.18683452    -0.08980
C1890       C  0.00167500  0.85539654  0.20758956     0.29900
F1891       F  0.98100420  0.82596068  0.21381258    -0.19500
H1892       H  0.02591068  0.86706924  0.23780899     0.18260
H1893       H  0.01743722  0.90558392  0.16612164     0.18270
F1894       F  0.05871439  0.94719453  0.19003778    -0.19490
C1895       C  0.11685035  0.98458670  0.22138978    -0.20920
C1896       C  0.10278970  0.95256953  0.21650052    -0.08970
C1897       C  0.11243456  0.94436105  0.19735079     0.29890
C1898       C  0.12799972  0.96644579  0.18143743    -0.20920
C1899       C  0.13732602  0.99792183  0.18483670    -0.08980
C1900       C  0.13366363  0.50707995  0.20564736     0.29900
F1901       F  0.14593027  0.53754215  0.21081045    -0.19500
H1902       H  0.11412364  0.49246304  0.23706851     0.18260
H1903       H  0.13077645  0.95812819  0.16592926     0.18270
F1904       F  0.10289616  0.91424063  0.19261986    -0.19490
C1905       C  0.13150734  0.67013497  0.18277139    -0.20920
C1906       C  0.13208343  0.64212758  0.18301546    -0.08970
C1907       C  0.11989307  0.62344597  0.20164658     0.29890
C1908       C  0.10332403  0.63001230  0.21715365    -0.20920
C1909       C  0.09933779  0.65624826  0.21546529    -0.08980
C1910       C  0.11803182  0.67817408  0.19947981     0.29900
F1911       F  0.12592295  0.70853513  0.20066931    -0.19500
H1912       H  0.14194901  0.68683215  0.16994231     0.18260
H1913       H  0.09461565  0.61448098  0.23073538     0.18270
F1914       F  0.12483024  0.59946419  0.20572007    -0.19490
C1915       C  0.21808456  0.91504300  0.92610830    -0.20920
C1916       C  0.21033637  0.92027834  0.94677787    -0.08970
C1917       C  0.21381034  0.94935284  0.95155912     0.29890
C1918       C  0.22486039  0.97278104  0.93604962    -0.20920
C1919       C  0.23186688  0.96809590  0.91464801    -0.08980
C1920       C  0.22799509  0.93808511  0.91013619     0.29900
F1921       F  0.23206433  0.92998575  0.88998479    -0.19500
H1922       H  0.21513460  0.89251775  0.92200726     0.18260
H1923       H  0.22748924  0.99437728  0.94156856     0.18270
F1924       F  0.20690335  0.95543527  0.97155416    -0.19490
C1925       C  0.03740181  0.79437622  0.92886471    -0.20920
C1926       C  0.03551096  0.77087227  0.91491805    -0.08970
C1927       C  0.05487365  0.75820347  0.91996775     0.29890
C1928       C  0.07799254  0.77191699  0.93555360    -0.20920
C1929       C  0.08220364  0.79782210  0.94725738    -0.08980
C1930       C  0.06118474  0.80856217  0.94421740     0.29900
F1931       F  0.06311393  0.83217311  0.95641976    -0.19500
H1932       H  0.02139976  0.80302986  0.92694895     0.18260
H1933       H  0.09272134  0.76199894  0.93856310     0.18270
F1934       F  0.05100218  0.73163301  0.91089962    -0.19490
C1935       C  0.18586560  0.76676922  0.93598972    -0.20920
C1936       C  0.20596156  0.79183647  0.94897638    -0.08970
C1937       C  0.23826888  0.80370626  0.94685048     0.29890
C1938       C  0.24990432  0.79216691  0.93096872    -0.20920
C1939       C  0.23003952  0.76978353  0.91592795    -0.08980
C1940       C  0.19746439  0.75522289  0.92014786     0.29900
F1941       F  0.17638062  0.72900317  0.90982558    -0.19500
H1942       H  0.16090449  0.75581322  0.93813715     0.18260
H1943       H  0.27484686  0.80194999  0.92970112     0.18270
F1944       F  0.25884025  0.82668419  0.95994422    -0.19490
C1945       C  0.27521278  0.59269356  0.03786611    -0.20920
C1946       C  0.28925999  0.58985719  0.01913339    -0.08970
C1947       C  0.29183868  0.56330786  0.01632574     0.29890
C1948       C  0.28063336  0.54012525  0.03194274    -0.20920
C1949       C  0.26655837  0.54217183  0.05130477    -0.08980
C1950       C  0.26475437  0.56992872  0.05394197     0.29900
F1951       F  0.25625421  0.57742039  0.07282670    -0.19500
H1952       H  0.27378619  0.61348790  0.04063302     0.18260
H1953       H  0.28363597  0.52088824  0.02813529     0.18270
F1954       F  0.30501974  0.55938446  0.99823458    -0.19490
C1955       C  0.28683632  0.49706580  0.09217871    -0.20920
C1956       C  0.28620196  0.52222144  0.08190431    -0.08970
C1957       C  0.30950335  0.55261766  0.08821333     0.29890
C1958       C  0.33135479  0.55715374  0.10392219    -0.20920
C1959       C  0.33175814  0.53202538  0.11373817    -0.08980
C1960       C  0.30975717  0.50181056  0.10712194     0.29900
F1961       F  0.30994025  0.97660913  0.11530678    -0.19500
H1962       H  0.26871576  0.97333044  0.08949202     0.18260
H1963       H  0.34727888  0.58074605  0.10899897     0.18270
F1964       F  0.31040379  0.57853688  0.08069253    -0.19490
C1965       C  0.18887639  0.52517081  0.09388090    -0.20920
C1966       C  0.19596153  0.52833205  0.11588477    -0.08970
C1967       C  0.22175488  0.52661055  0.12293934     0.29890
C1968       C  0.23997559  0.52153791  0.10838273    -0.20920
C1969       C  0.23407738  0.51911492  0.08590495    -0.08980
C1970       C  0.20752909  0.52058713  0.07904149     0.29900
F1971       F  0.20012497  0.51843061  0.05782165    -0.19500
H1972       H  0.16886940  0.52627641  0.08817414     0.18260
H1973       H  0.25905210  0.52016250  0.11538544     0.18270
F1974       F  0.23008277  0.53078035  0.14403790    -0.19490
C1975       C  0.20722974  0.96232533  0.05985529    -0.20920
C1976       C  0.23992639  0.98303114  0.05867846    -0.08970
C1977       C  0.25723144  0.97130959  0.04773879     0.29890
C1978       C  0.24247816  0.94348843  0.03620238    -0.20920
C1979       C  0.20996804  0.92532638  0.03547440    -0.08980
C1980       C  0.19248095  0.93449257  0.04810568     0.29900
F1981       F  0.16100702  0.91679918  0.04903436    -0.19500
H1982       H  0.19210037  0.96685810  0.06969207     0.18260
H1983       H  0.25688856  0.93644490  0.02747236     0.18270
F1984       F  0.28881568  0.98628535  0.04833800    -0.19490
C1985       C  0.44657779  0.75156821  0.04502219    -0.20920
C1986       C  0.46303652  0.73628902  0.05077384    -0.08970
C1987       C  0.45809766  0.71046344  0.03803589     0.29890
C1988       C  0.43464642  0.69805983  0.02244890    -0.20920
C1989       C  0.41699183  0.71223481  0.01805265    -0.08980
C1990       C  0.42381195  0.73967148  0.02905157     0.29900
F1991       F  0.40793109  0.75471091  0.02475567    -0.19500
H1992       H  0.45099666  0.77279615  0.05293925     0.18260
H1993       H  0.43062281  0.67760482  0.01353312     0.18270
F1994       F  0.47502827  0.69626778  0.04129428    -0.19490
C1995       C  0.00677171  0.79745421  0.09374639    -0.20920
C1996       C  0.48184261  0.76953501  0.08544400    -0.08970
C1997       C  0.45196787  0.75900189  0.09462967     0.29890
C1998       C  0.44734754  0.77579354  0.11071240    -0.20920
C1999       C  0.47199838  0.80367081  0.11852234    -0.08980
C2000       C  0.00189222  0.81449676  0.10983297     0.29900
F2001       F  0.02641230  0.84161971  0.11672282    -0.19500
H2002       H  0.03040099  0.80592741  0.08839594     0.18260
H2003       H  0.42418092  0.76647035  0.11741698     0.18270
F2004       F  0.42678975  0.73205908  0.08825865    -0.19490
C2005       C  0.45363243  0.69335382  0.08628961    -0.20920
C2006       C  0.48245605  0.72130430  0.08471675    -0.08970
C2007       C  0.00520805  0.72664500  0.10043406     0.29890
C2008       C  0.00017474  0.70403707  0.11565891    -0.20920
C2009       C  0.47130841  0.67652088  0.11721041    -0.08980
C2010       C  0.44781302  0.67182013  0.10251975     0.29900
F2011       F  0.41840829  0.64745765  0.10452185    -0.19500
H2012       H  0.43436376  0.68868888  0.07592319     0.18260
H2013       H  0.01895580  0.70861083  0.12653957     0.18270
F2014       F  0.03237453  0.75408507  0.10138878    -0.19490
C2015       C  0.03737098  0.74978221  0.05605923    -0.20920
C2016       C  0.01908585  0.76422677  0.05814471    -0.08970
C2017       C  0.02955744  0.79266572  0.04715381     0.29890
C2018       C  0.05796763  0.80692920  0.03613168    -0.20920
C2019       C  0.07644497  0.79287471  0.03478570    -0.08980
C2020       C  0.06569556  0.76396341  0.04486853     0.29900
F2021       F  0.08189163  0.74867606  0.04333652    -0.19500
H2022       H  0.02956843  0.72689481  0.06256087     0.18260
H2023       H  0.06500834  0.82874123  0.02802767     0.18270
F2024       F  0.01221801  0.80681379  0.04693169    -0.19490
C2025       C  0.29322741  0.73291929  0.05603776    -0.20920
C2026       C  0.26924830  0.73960832  0.05086923    -0.08970
C2027       C  0.26238169  0.73865249  0.02840516     0.29890
C2028       C  0.27530116  0.72756914  0.01321406    -0.20920
C2029       C  0.29729126  0.71938944  0.01905049    -0.08980
C2030       C  0.30707181  0.72312642  0.04046649     0.29900
F2031       F  0.32909120  0.71612905  0.04651881    -0.19500
H2032       H  0.30122494  0.73492366  0.07247461     0.18260
H2033       H  0.26848663  0.72599123  0.99647534     0.18270
F2034       F  0.24425525  0.74910065  0.02006317    -0.19490
C2035       C  0.33259321  0.81011473  0.09476543    -0.20920
C2036       C  0.32581688  0.80576405  0.11685921    -0.08970
C2037       C  0.29535471  0.78531836  0.12348916     0.29890
C2038       C  0.27235002  0.76855143  0.10843180    -0.20920
C2039       C  0.27868401  0.77091470  0.08597912    -0.08980
C2040       C  0.30929455  0.79354157  0.07945838     0.29900
F2041       F  0.31684870  0.79970001  0.05829189    -0.19500
H2042       H  0.35588520  0.82669736  0.08936583     0.18260
H2043       H  0.24968997  0.75345087  0.11507866     0.18270
F2044       F  0.28784595  0.78081129  0.14476164    -0.19490
C2045       C  0.23567737  0.69481822  0.08704326    -0.20920
C2046       C  0.22921098  0.71891837  0.08235938    -0.08970
C2047       C  0.20353885  0.71771601  0.09378966     0.29890
C2048       C  0.18592564  0.69390968  0.10844788    -0.20920
C2049       C  0.19385532  0.67130484  0.11355114    -0.08980
C2050       C  0.21906415  0.67210734  0.10258681     0.29900
F2051       F  0.22926645  0.65220301  0.10777011    -0.19500
H2052       H  0.25450926  0.69349623  0.07968185     0.18260
H2053       H  0.16667783  0.69408217  0.11660589     0.18270
F2054       F  0.19730786  0.74134454  0.09300253    -0.19490
C2055       C  0.25015703  0.79821566  0.05928317    -0.20920
C2056       C  0.23648072  0.76540545  0.05960297    -0.08970
C2057       C  0.20707411  0.74790625  0.04945060     0.29890
C2058       C  0.19328734  0.76253863  0.03873054    -0.20920
C2059       C  0.20820159  0.79505554  0.03716067    -0.08980
C2060       C  0.23647196  0.81280883  0.04808829     0.29900
F2061       F  0.25166092  0.84432393  0.04731270    -0.19500
H2062       H  0.27214375  0.81318934  0.06694151     0.18260
H2063       H  0.17149283  0.74802244  0.03051701     0.18270
F2064       F  0.19282312  0.71644812  0.04810692    -0.19490
C2065       C  0.75331012  0.24881023  0.06946061    -0.02110
C2066       C  0.98683582  0.24800948  0.06959593    -0.02110
C2067       C  0.75655401  0.01650918  0.06933485    -0.02110
O2068       O  0.62011204  0.29338356  0.01783785    -0.81420
C2069       C  0.69757075  0.39550054  0.96328576     0.97940
O2070       O  0.67489648  0.39208275  0.97466924    -0.70530
O2071       O  0.62187403  0.33972507  0.96768987    -0.74120
Al2072     Al  0.64553590  0.35951053  0.99295858     1.48980
C2073       C  0.60663916  0.31087792  0.96394088     0.93190
O2074       O  0.66419008  0.29257991  0.96779008    -0.80350
O2075       O  0.70933426  0.33819522  0.01880163    -0.73900
Al2076     Al  0.64385859  0.29611051  0.99289574     1.90120
O2077       O  0.71157024  0.32813636  0.97583912    -0.72970
O2078       O  0.71284424  0.39188864  0.00961571    -0.72820
O2079       O  0.70973989  0.37880732  0.96644274    -0.78480
O2080       O  0.66619076  0.38228416  0.01839497    -0.76690
O2081       O  0.66535211  0.33761303  0.99289529    -1.12820
O2082       O  0.61184117  0.33173223  0.01087038    -0.72010
C2083       C  0.60462929  0.30691751  0.02078804     0.98700
C2084       C  0.69314884  0.30478698  0.96496898     0.95100
Al2085     Al  0.70704418  0.35750034  0.99271903     1.55560
O2086       O  0.61193521  0.29228508  0.97433042    -0.76640
C2087       C  0.69533174  0.39808819  0.02072016     0.99270
C2088       C  0.69551264  0.30918167  0.02207280     0.94150
O2089       O  0.67147535  0.29121798  0.01144158    -0.81960
C2090       C  0.64612360  0.13351960  0.16438972     0.03510
C2091       C  0.66603307  0.15605856  0.14932090    -0.12640
C2092       C  0.67622126  0.14771994  0.13067053     0.01010
C2093       C  0.66978343  0.11700548  0.12849518    -0.11160
C2094       C  0.65366050  0.09454819  0.14463368     0.03500
C2095       C  0.63913039  0.10255188  0.16106477    -0.10580
H2096       H  0.67393072  0.18037236  0.15173154     0.09100
H2097       H  0.67754057  0.11121850  0.11395684     0.06630
H2098       H  0.62182751  0.08452475  0.17099959     0.06470
C2099       C  0.67659814  0.03322145  0.13175490     0.03510
C2100       C  0.66978705  0.05707743  0.12907932    -0.12640
C2101       C  0.65460767  0.06450276  0.14545484     0.01010
C2102       C  0.64397743  0.04480102  0.16384507    -0.11160
C2103       C  0.65000618  0.02008548  0.16635639     0.03500
C2104       C  0.66702550  0.51525832  0.15036236    -0.10580
H2105       H  0.67809169  0.07030180  0.11444713     0.09100
H2106       H  0.63105510  0.04830190  0.17640766     0.06630
H2107       H  0.67309493  0.49730472  0.15229453     0.06470
C2108       C  0.96550399  0.32036076  0.13588097     0.03510
C2109       C  0.48496580  0.33265726  0.15387283    -0.12640
C2110       C  0.97675519  0.34584759  0.17081610     0.01010
C2111       C  0.94845336  0.34554432  0.17021326    -0.11160
C2112       C  0.92900918  0.33476216  0.15187299     0.03500
C2113       C  0.93850252  0.32276798  0.13467668    -0.10580
H2114       H  0.50653217  0.33223358  0.15473998     0.09100
H2115       H  0.94288445  0.35490643  0.18410699     0.06630
H2116       H  0.92540723  0.31541590  0.11991194     0.06470
C2117       C  0.84995023  0.32320011  0.13321427     0.03510
C2118       C  0.87697799  0.32087198  0.13429699    -0.12640
C2119       C  0.89969430  0.33680006  0.15043084     0.01010
C2120       C  0.89386040  0.35471167  0.16541836    -0.11160
C2121       C  0.86621252  0.35573100  0.16507470     0.03500
C2122       C  0.84466716  0.34048907  0.14874066    -0.10580
H2123       H  0.87914639  0.30570034  0.12283190     0.09100
H2124       H  0.91040820  0.36815620  0.17772177     0.06630
H2125       H  0.82373782  0.34216694  0.14805140     0.06470
C2126       C  0.84555481  0.42853723  0.23076046    -0.02110
C2127       C  0.57690439  0.16168637  0.23074487    -0.02110
C2128       C  0.57643238  0.42647845  0.23017397    -0.02110
O2129       O  0.62033151  0.28686208  0.28791141    -0.81420
C2130       C  0.72448302  0.36510162  0.33645507     0.97940
O2131       O  0.70803430  0.33629669  0.33293340    -0.70530
O2132       O  0.65727377  0.28451802  0.32380912    -0.74120
Al2133     Al  0.68666876  0.31742333  0.30674762     1.48980
C2134       C  0.63374438  0.27970878  0.33449044     0.93190
O2135       O  0.62156435  0.34849016  0.32443696    -0.80350
O2136       O  0.66149331  0.38708190  0.28895444    -0.73900
Al2137     Al  0.62527311  0.31966508  0.30606622     1.90120
O2138       O  0.66943058  0.38398432  0.33209136    -0.72970
O2139       O  0.71174714  0.38285205  0.28121766    -0.72820
O2140       O  0.72152950  0.38418598  0.32479559    -0.78480
O2141       O  0.72112631  0.34565956  0.28976156    -0.76690
O2142       O  0.66690705  0.33923314  0.30643203    -1.12820
O2143       O  0.66723303  0.29525709  0.28089665    -0.72010
C2144       C  0.63818650  0.28016667  0.27767706     0.98700
C2145       C  0.64055687  0.37162201  0.33542132     0.95100
Al2146     Al  0.68904704  0.38077923  0.30665798     1.55560
O2147       O  0.62070585  0.29557074  0.33123875    -0.76640
C2148       C  0.72764845  0.36959418  0.27896538     0.99270
C2149       C  0.63728383  0.36979127  0.27834078     0.94150
O2150       O  0.62361157  0.34068819  0.28075029    -0.81960
C2151       C  0.96559758  0.15350946  0.13451343     0.03510
C2152       C  0.98038034  0.16313523  0.15452071    -0.12640
C2153       C  0.97746205  0.14129504  0.16995011     0.01010
C2154       C  0.95393424  0.11018362  0.16729106    -0.11160
C2155       C  0.93641711  0.10016965  0.14803625     0.03500
C2156       C  0.94556061  0.12169092  0.13102713    -0.10580
H2157       H  0.49534091  0.18760935  0.15785356     0.09100
H2158       H  0.95003928  0.09417420  0.18019191     0.06630
H2159       H  0.93696507  0.11401365  0.11496947     0.06470
C2160       C  0.86837188  0.02120439  0.16429481     0.03510
C2161       C  0.84616180  0.01804155  0.14904260    -0.12640
C2162       C  0.85473858  0.03758287  0.13104913     0.01010
C2163       C  0.88490446  0.06337337  0.13014915    -0.11160
C2164       C  0.90706545  0.06905428  0.14632157     0.03500
C2165       C  0.89903216  0.04611370  0.16218487    -0.10580
H2166       H  0.82196266  0.50065339  0.15123242     0.09100
H2167       H  0.89037296  0.07920374  0.11691927     0.06630
H2168       H  0.91648514  0.04758016  0.17313044     0.06470
C2169       C  0.91432767  0.32737721  0.56500090    -0.02110
C2170       C  0.90792447  0.09346876  0.56333899    -0.02110
C2171       C  0.67902287  0.09934313  0.56372723    -0.02110
O2172       O  0.99322653  0.05545973  0.62293433    -0.81420
C2173       C  0.96914145  0.45042800  0.66734525     0.97940
O2174       O  0.95606934  0.46627594  0.66398343    -0.70530
O2175       O  0.95255357  0.01629659  0.65538815    -0.74120
Al2176     Al  0.95866486  0.48796737  0.63826568     1.48980
C2177       C  0.97030740  0.03698030  0.66830784     0.93190
O2178       O  0.55211725  0.05202503  0.66035296    -0.80350
O2179       O  0.55331786  0.01591826  0.61892686    -0.73900
Al2180     Al  0.52101030  0.04955586  0.64135380     1.90120
O2181       O  0.54400281  0.00458574  0.66238315    -0.72970
O2182       O  0.99965512  0.46505558  0.61156116    -0.72820
O2183       O  0.99148560  0.45373184  0.65549429    -0.78480
O2184       O  0.95297404  0.45363119  0.62130905    -0.76690
O2185       O  0.00032718  0.00823776  0.63874134    -1.12820
O2186       O  0.95776659  0.00846596  0.61267276    -0.72010
C2187       C  0.97015830  0.03772597  0.61120839     0.98700
C2188       C  0.55720855  0.03216658  0.66906643     0.95100
Al2189     Al  0.52039169  0.48677004  0.63711747     1.55560
O2190       O  0.99927058  0.04889493  0.66677544    -0.76640
C2191       C  0.97061672  0.44770259  0.61021266     0.99270
C2192       C  0.56079149  0.04225531  0.61125179     0.94150
O2193       O  0.54656992  0.05629066  0.61675503    -0.81960
C2194       C  0.69979358  0.02223604  0.50232202     0.03510
C2195       C  0.67695309  0.50773173  0.48651746    -0.12640
C2196       C  0.68300582  0.49480851  0.46834426     0.01010
C2197       C  0.71239609  0.49768498  0.46560258    -0.11160
C2198       C  0.73541235  0.01107451  0.48165621     0.03500
C2199       C  0.72819900  0.02280768  0.50022713    -0.10580
H2200       H  0.65467590  0.50658849  0.48830023     0.09100
H2201       H  0.71642907  0.48882712  0.45079659     0.06630
H2202       H  0.74426820  0.03265193  0.51345780     0.06470
C2203       C  0.79802175  0.99195727  0.46359632     0.03510
C2204       C  0.81979030  0.00582361  0.48015815    -0.12640
C2205       C  0.81581497  0.02379221  0.49609947     0.01010
C2206       C  0.79039353  0.02873084  0.49416445    -0.11160
C2207       C  0.76588204  0.01137416  0.47968927     0.03500
C2208       C  0.77049482  0.99324842  0.46415808    -0.10580
H2209       H  0.83916498  0.00165639  0.48068376     0.09100
H2210       H  0.78997938  0.04631473  0.50408718     0.06630
H2211       H  0.75309812  0.47974878  0.45230149     0.06470
C2212       C  0.51232591  0.20259689  0.46544227     0.03510
C2213       C  0.99214811  0.17905217  0.47963629    -0.12640
C2214       C  0.97605443  0.18508243  0.49569388     0.01010
C2215       C  0.97637630  0.21340052  0.49562648    -0.11160
C2216       C  0.99584822  0.23756267  0.48145826     0.03500
C2217       C  0.51503746  0.23218730  0.46738920    -0.10580
H2218       H  0.98839021  0.15575107  0.47838563     0.09100
H2219       H  0.96166427  0.21616196  0.50714634     0.06630
H2220       H  0.53274802  0.25138088  0.45826614     0.06470
C2221       C  0.99316597  0.30875586  0.50257146     0.03510
C2222       C  0.98804565  0.27840694  0.50051407    -0.12640
C2223       C  0.49808608  0.26893568  0.48228740     0.01010
C2224       C  0.51040800  0.28988793  0.46487246    -0.11160
C2225       C  0.51784832  0.32116464  0.46702581     0.03500
C2226       C  0.51117563  0.33054668  0.48677893    -0.10580
H2227       H  0.97588407  0.26215538  0.51314534     0.09100
H2228       H  0.51408246  0.28172946  0.44961493     0.06630
H2229       H  0.51977238  0.35483506  0.48998566     0.06470
C2230       C  0.82143596  0.30247225  0.49784903     0.03510
C2231       C  0.79169749  0.27589455  0.49820224    -0.12640
C2232       C  0.76924826  0.27049558  0.48219507     0.01010
C2233       C  0.77839186  0.29305047  0.46555366    -0.11160
C2234       C  0.80828463  0.31938799  0.46496708     0.03500
C2235       C  0.82958443  0.32386345  0.48109191    -0.10580
H2236       H  0.78663054  0.26025603  0.51150796     0.09100
H2237       H  0.76245747  0.29168894  0.45332130     0.06630
H2238       H  0.85246619  0.34447491  0.48077631     0.06470
C2239       C  0.69639933  0.19491020  0.50147798     0.03510
C2240       C  0.72640722  0.22122372  0.50085879    -0.12640
C2241       C  0.73657002  0.24236679  0.48323966     0.01010
C2242       C  0.71500200  0.23579849  0.46636373    -0.11160
C2243       C  0.68478783  0.21008411  0.46719413     0.03500
C2244       C  0.67568913  0.18995275  0.48476084    -0.10580
H2245       H  0.74152735  0.22391105  0.51404441     0.09100
H2246       H  0.72113021  0.24977988  0.45202021     0.06630
H2247       H  0.65234596  0.17005206  0.48531779     0.06470
C2248       C  0.59091223  0.41851804  0.40284716    -0.02110
C2249       C  0.59012273  0.18408589  0.40140592    -0.02110
C2250       C  0.82104991  0.41436707  0.40386620    -0.02110
O2251       O  0.54803790  0.99871652  0.34145597    -0.81420
C2252       C  0.93984472  0.47263321  0.29935719     0.97940
O2253       O  0.95667867  0.46053145  0.30217268    -0.70530
O2254       O  0.50830932  0.45934337  0.30879525    -0.74120
Al2255     Al  0.98003956  0.46399773  0.32715657     1.48980
C2256       C  0.52916012  0.47767985  0.29601619     0.93190
O2257       O  0.54383143  0.05966650  0.30721052    -0.80350
O2258       O  0.50728208  0.05885344  0.34508019    -0.73900
Al2259     Al  0.54114561  0.02694594  0.32448796     1.90120
O2260       O  0.49553428  0.04745899  0.30150857    -0.72970
O2261       O  0.95640923  0.50498124  0.35418101    -0.72820
O2262       O  0.94379018  0.99550014  0.31065660    -0.78480
O2263       O  0.94664892  0.45832496  0.34526924    -0.76690
O2264       O  0.49964454  0.00545657  0.32669219    -1.12820
O2265       O  0.50163589  0.46296900  0.35212759    -0.72010
C2266       C  0.53091311  0.47534810  0.35300791     0.98700
C2267       C  0.52414587  0.06350775  0.29707892     0.95100
Al2268     Al  0.97776533  0.02507686  0.32783358     1.55560
O2269       O  0.54109591  0.00666057  0.29819613    -0.76640
C2270       C  0.94026541  0.47580071  0.35620203     0.99270
C2271       C  0.53270719  0.06572441  0.35409935     0.94150
O2272       O  0.54633501  0.05051536  0.35004055    -0.81960
C2273       C  0.92105612  0.35206694  0.73346662    -0.02110
C2274       C  0.65338656  0.07867200  0.73585292    -0.02110
C2275       C  0.92255897  0.08559856  0.73574478    -0.02110
O2276       O  0.78832197  0.12949974  0.68705889    -0.81420
C2277       C  0.86478346  0.23151176  0.63202590     0.97940
O2278       O  0.84135163  0.22683286  0.64284826    -0.70530
O2279       O  0.79211930  0.17351909  0.63344858    -0.74120
Al2280     Al  0.81176013  0.19287459  0.65970257     1.49160
C2281       C  0.77572169  0.14456329  0.63049254     0.93190
O2282       O  0.83103048  0.12558194  0.63701426    -0.80350
O2283       O  0.87708239  0.17386768  0.68611138    -0.73900
Al2284     Al  0.81106951  0.13045662  0.66179499     1.90120
O2285       O  0.87845867  0.16395686  0.64277051    -0.72970
O2286       O  0.87772650  0.22635769  0.67816262    -0.72820
O2287       O  0.87734573  0.21524131  0.63503215    -0.78480
O2288       O  0.82973342  0.21464772  0.68588575    -0.76690
O2289       O  0.83241897  0.17203556  0.66069737    -1.12820
O2290       O  0.77657863  0.16407479  0.67601889    -0.72010
C2291       C  0.77112681  0.14140681  0.68787393     0.98700
C2292       C  0.85977863  0.13940770  0.63284313     0.95100
Al2293     Al  0.87398721  0.19291016  0.66063605     1.55560
O2294       O  0.77836176  0.12573181  0.64279444    -0.76640
C2295       C  0.85873901  0.23166171  0.68836789     0.99270
C2296       C  0.86376251  0.14517523  0.68997479     0.94150
O2297       O  0.83907597  0.12637430  0.68038846    -0.81960
C2298       C  0.81680583  0.47274642  0.83238917     0.03510
C2299       C  0.81640253  0.44439374  0.83210077    -0.12640
C2300       C  0.83034462  0.43661495  0.81501066     0.01010
C2301       C  0.84666582  0.45967749  0.79911999    -0.11160
C2302       C  0.84707592  0.98812856  0.79924795     0.03500
C2303       C  0.83158214  0.99410329  0.81580739    -0.10580
H2304       H  0.80462794  0.42883583  0.84531001     0.09100
H2305       H  0.86014849  0.45665917  0.78677150     0.06630
H2306       H  0.83083183  0.01552059  0.81588234     0.06470
C2307       C  0.84674415  0.37164619  0.79881690     0.03510
C2308       C  0.84427805  0.39834997  0.79782826    -0.12640
C2309       C  0.82924692  0.40558262  0.81432875     0.01010
C2310       C  0.81347419  0.38270184  0.83035431    -0.11160
C2311       C  0.81751772  0.35667768  0.83249301     0.03500
C2312       C  0.83522248  0.35207824  0.81666220    -0.10580
H2313       H  0.85481271  0.41311170  0.78406044     0.09100
H2314       H  0.79721360  0.38438027  0.84088106     0.06630
H2315       H  0.84023963  0.33333227  0.81784931     0.06470
C2316       C  0.64562711  0.47028780  0.83295900     0.03510
C2317       C  0.65471408  0.48952847  0.81451181    -0.12640
C2318       C  0.63477520  0.48130145  0.79667438     0.01010
C2319       C  0.60732644  0.45257776  0.79640455    -0.11160
C2320       C  0.59712442  0.43377123  0.81479772     0.03500
C2321       C  0.61578951  0.44375350  0.83330036    -0.10580
H2322       H  0.67675224  0.01104493  0.81402954     0.09100
H2323       H  0.59346261  0.44571998  0.78187864     0.06630
H2324       H  0.60697499  0.43082640  0.84811466     0.06470
C2325       C  0.51557057  0.37094016  0.79879997     0.03510
C2326       C  0.54258095  0.40011262  0.80130966    -0.12640
C2327       C  0.56689774  0.40402802  0.81474054     0.01010
C2328       C  0.56230589  0.37927208  0.82789637    -0.11160
C2329       C  0.53273308  0.35287273  0.83001229     0.03500
C2330       C  0.00969913  0.34867910  0.81499919    -0.10580
H2331       H  0.54481778  0.42030825  0.79341252     0.09100
H2332       H  0.58172604  0.38088377  0.83675923     0.06630
H2333       H  0.98706895  0.32852779  0.81655796     0.06470
C2334       C  0.63932649  0.16243220  0.79587509     0.03510
C2335       C  0.61090321  0.16217455  0.79583779    -0.12640
C2336       C  0.60438359  0.17893738  0.81152260     0.01010
C2337       C  0.62713171  0.19543778  0.82726634    -0.11160
C2338       C  0.65483076  0.19446842  0.82806386     0.03500
C2339       C  0.66113404  0.17864917  0.81197881    -0.10580
H2340       H  0.59373575  0.14773068  0.78405069     0.09100
H2341       H  0.62356791  0.20898564  0.83933588     0.06630
H2342       H  0.68297308  0.17866835  0.81202953     0.06470
C2343       C  0.53503535  0.18655058  0.83123000     0.03510
C2344       C  0.01517484  0.17487077  0.81348128    -0.12640
C2345       C  0.02447631  0.16544017  0.79488019     0.01010
C2346       C  0.55459715  0.16960702  0.79384125    -0.11160
C2347       C  0.57377959  0.17835445  0.81210712     0.03500
C2348       C  0.56317244  0.18631552  0.83092572    -0.10580
H2349       H  0.99268972  0.17341141  0.81414030     0.09100
H2350       H  0.56260651  0.16544402  0.77866453     0.06630
H2351       H  0.57648286  0.19281579  0.84562050     0.06470
C2352       C  0.74434510  0.26031874  0.89697184    -0.02110
C2353       C  0.74190329  0.49411705  0.89678296    -0.02110
C2354       C  0.51159432  0.25888554  0.89594405    -0.02110
O2355       O  0.78560259  0.11836573  0.95693180    -0.81420
C2356       C  0.89270410  0.19952107  0.00128619     0.97940
O2357       O  0.87649184  0.17054808  0.99820828    -0.70530
O2358       O  0.82415435  0.11802213  0.99099458    -0.74120
Al2359     Al  0.85317297  0.15071387  0.97291405     1.48980
C2360       C  0.80192941  0.11469882  0.00276510     0.93190
O2361       O  0.78902400  0.18295160  0.99193276    -0.80350
O2362       O  0.82654897  0.21894309  0.95496388    -0.73900
Al2363     Al  0.79198526  0.15295169  0.97435740     1.90120
O2364       O  0.83731056  0.21835299  0.99853285    -0.72970
O2365       O  0.87746354  0.21562425  0.94655765    -0.72820
O2366       O  0.88869724  0.21825156  0.98998051    -0.78480
O2367       O  0.88673680  0.17835622  0.95502845    -0.76690
O2368       O  0.83358714  0.17267272  0.97312077    -1.12820
O2369       O  0.83224203  0.12813512  0.94757134    -0.72010
C2370       C  0.80303449  0.11221858  0.94553566     0.98700
C2371       C  0.80867032  0.20610119  0.00254310     0.95100
Al2372     Al  0.85551183  0.21414503  0.97246775     1.55560
O2373       O  0.79025433  0.13188394  0.00027185    -0.76640
C2374       C  0.89332099  0.20229474  0.94420695     0.99270
C2375       C  0.80152567  0.20053888  0.94540498     0.94150
O2376       O  0.78814639  0.17170128  0.94887890    -0.81960
C2377       C  0.95851996  0.25504755  0.90568332    -0.20920
C2378       C  0.97889955  0.24279351  0.90684526    -0.08970
C2379       C  0.96976766  0.21673191  0.92029617     0.29890
C2380       C  0.94141035  0.20311571  0.93131984    -0.20920
C2381       C  0.92134912  0.21538770  0.93004975    -0.08980
C2382       C  0.93019095  0.24151122  0.91696393     0.29900
F2383       F  0.91196658  0.25462097  0.91546743    -0.19500
H2384       H  0.96460438  0.27588648  0.89666926     0.18260
H2385       H  0.93571589  0.18334451  0.94155050     0.18270
F2386       F  0.98851608  0.20444124  0.92307218    -0.19490
C2387       C  0.75593292  0.06685430  0.92980626    -0.20920
C2388       C  0.78845557  0.08485105  0.93081078    -0.08970
C2389       C  0.80610979  0.07491202  0.91898428     0.29890
C2390       C  0.79146439  0.04688588  0.90740258    -0.20920
C2391       C  0.75868239  0.02715090  0.90768675    -0.08980
C2392       C  0.74127296  0.03878503  0.91851982     0.29900
F2393       F  0.70968565  0.02230559  0.91907266    -0.19500
H2394       H  0.74148935  0.07395513  0.93842784     0.18260
H2395       H  0.80653817  0.04097491  0.89864551     0.18270
F2396       F  0.83766180  0.09179147  0.91896808    -0.19490
C2397       C  0.74151803  0.21513787  0.91865214    -0.20920
C2398       C  0.76016878  0.24355644  0.90779047    -0.08970
C2399       C  0.79301345  0.25727495  0.90987082     0.29890
C2400       C  0.80594165  0.24222110  0.92112207    -0.20920
C2401       C  0.78712653  0.21356380  0.93111090    -0.08980
C2402       C  0.75465154  0.19995150  0.92966806     0.29900
F2403       F  0.73552870  0.17290359  0.94000405    -0.19500
H2404       H  0.71644284  0.20467691  0.91868915     0.18260
H2405       H  0.83101455  0.25368877  0.92266402     0.18270
F2406       F  0.81320841  0.28629665  0.90267113    -0.19490
C2407       C  0.55184271  0.23245918  0.85471068    -0.20920
C2408       C  0.52855761  0.20249452  0.84904576    -0.08970
C2409       C  0.99945461  0.18962918  0.85936200     0.29890
C2410       C  0.99384918  0.20679859  0.87494457    -0.20920
C2411       C  0.51722360  0.23725713  0.88066020    -0.08980
C2412       C  0.54636043  0.24968996  0.86996739     0.29900
F2413       F  0.56972113  0.27898945  0.87415673    -0.19500
H2414       H  0.57427186  0.24312938  0.84669273     0.18260
H2415       H  0.97069711  0.19644426  0.88166407     0.18270
F2416       F  0.97636360  0.16057575  0.85430037    -0.19490
C2417       C  0.68324979  0.23937516  0.85273987    -0.20920
C2418       C  0.67691969  0.20994413  0.84594777    -0.08970
C2419       C  0.69118959  0.19544266  0.85663488     0.29890
C2420       C  0.71221930  0.21072016  0.87333787    -0.20920
C2421       C  0.71872723  0.24044735  0.88034871    -0.08980
C2422       C  0.70336488  0.25424703  0.86973098     0.29900
F2423       F  0.70842455  0.28277439  0.87554165    -0.19500
H2424       H  0.67289835  0.25126813  0.84466283     0.18260
H2425       H  0.72403494  0.19941042  0.87995602     0.18270
F2426       F  0.68470917  0.16637005  0.85106999    -0.19490
C2427       C  0.00286654  0.29861957  0.84533374    -0.20920
C2428       C  0.52622840  0.32985045  0.84765854    -0.08970
C2429       C  0.54313148  0.33871429  0.86712555     0.29890
C2430       C  0.53897368  0.31655022  0.88249006    -0.20920
C2431       C  0.51541687  0.28516080  0.88036866    -0.08980
C2432       C  0.99665953  0.27705590  0.86163788     0.29900
F2433       F  0.97297435  0.24758269  0.85853640    -0.19500
H2434       H  0.98940612  0.29022192  0.83072750     0.18260
H2435       H  0.55526987  0.32471976  0.89558163     0.18270
F2436       F  0.56371445  0.36889484  0.87173192    -0.19490
C2437       C  0.68921694  0.00763818  0.85720891    -0.20920
C2438       C  0.66704712  0.47702514  0.85165891    -0.08970
C2439       C  0.66683339  0.45265724  0.86334213     0.29890
C2440       C  0.68820256  0.45879459  0.87973485    -0.20920
C2441       C  0.71233206  0.48923960  0.88438443    -0.08980
C2442       C  0.71204801  0.01380959  0.87269684     0.29900
F2443       F  0.73580330  0.04356671  0.87408185    -0.19500
H2444       H  0.69011322  0.02705942  0.84872984     0.18260
H2445       H  0.68668460  0.43878796  0.88748246     0.18270
F2446       F  0.64778065  0.42244850  0.85785892    -0.19490
C2447       C  0.79570026  0.30293532  0.84811223    -0.20920
C2448       C  0.80235986  0.33379426  0.85058997    -0.08970
C2449       C  0.79355355  0.34181218  0.87023691     0.29890
C2450       C  0.77535761  0.31895097  0.88534717    -0.20920
C2451       C  0.76796893  0.28778319  0.88259388    -0.08980
C2452       C  0.78028343  0.28086050  0.86409910     0.29900
F2453       F  0.77567097  0.25184121  0.86076150    -0.19500
H2454       H  0.80146512  0.29502507  0.83350880     0.18260
H2455       H  0.76662024  0.32622349  0.89870893     0.18270
F2456       F  0.80244496  0.37170786  0.87522584    -0.19490
C2457       C  0.80567180  0.47990969  0.87092847    -0.20920
C2458       C  0.79926584  0.47921282  0.84888968    -0.08970
C2459       C  0.77591647  0.48510764  0.84228953     0.29890
C2460       C  0.75881835  0.49104254  0.85732974    -0.20920
C2461       C  0.76391405  0.49111537  0.87985477    -0.08980
C2462       C  0.78857066  0.48614060  0.88625401     0.29900
F2463       F  0.79556065  0.48638821  0.90740401    -0.19500
H2464       H  0.82398181  0.47569963  0.87625642     0.18260
H2465       H  0.74117036  0.49488423  0.85054859     0.18270
F2466       F  0.76882763  0.48415096  0.82107706    -0.19490
C2467       C  0.88285949  0.02832009  0.74589557    -0.20920
C2468       C  0.90092388  0.05994487  0.75216455    -0.08970
C2469       C  0.89727404  0.06705797  0.77377570     0.29890
C2470       C  0.88060588  0.04367034  0.78871487    -0.20920
C2471       C  0.86469683  0.01233868  0.78265824    -0.08980
C2472       C  0.86526112  0.00491427  0.76083962     0.29900
F2473       F  0.84815750  0.47518993  0.75371646    -0.19500
H2474       H  0.88186014  0.02144422  0.72923542     0.18260
H2475       H  0.88026177  0.05041144  0.80527563     0.18270
F2476       F  0.90893449  0.09646530  0.78094771    -0.19490
C2477       C  0.97679468  0.10425362  0.75359952    -0.20920
C2478       C  0.95257773  0.11030998  0.74836550    -0.08970
C2479       C  0.95537043  0.13811082  0.75762598     0.29890
C2480       C  0.97984402  0.15696442  0.77143366    -0.20920
C2481       C  0.00203184  0.14889102  0.77726290    -0.08980
C2482       C  0.00054946  0.12262101  0.76775667     0.29900
F2483       F  0.52072312  0.11287829  0.77330943    -0.19500
H2484       H  0.97817301  0.08482509  0.74792038     0.18260
H2485       H  0.98040041  0.17719660  0.77848800     0.18270
F2486       F  0.93266664  0.14561803  0.75595288    -0.19490
C2487       C  0.92411322  0.13010450  0.71428519    -0.20920
C2488       C  0.90591954  0.10219719  0.72598760    -0.08970
C2489       C  0.87324532  0.09029920  0.72679653     0.29890
C2490       C  0.85994771  0.10538328  0.71594011    -0.20920
C2491       C  0.87840260  0.13279130  0.70439944    -0.08980
C2492       C  0.91073680  0.14546719  0.70406916     0.29900
F2493       F  0.92929813  0.17140802  0.69243720    -0.19500
H2494       H  0.94897451  0.13960400  0.71258904     0.18260
H2495       H  0.83486640  0.09504288  0.71603514     0.18270
F2496       F  0.85339086  0.06329055  0.73679965    -0.19490
C2497       C  0.62079193  0.03400172  0.76099585    -0.20920
C2498       C  0.64867968  0.04993567  0.74895648    -0.08970
C2499       C  0.67007386  0.03891730  0.75051079     0.29890
C2500       C  0.66591966  0.01688581  0.76625094    -0.20920
C2501       C  0.63957383  0.00393970  0.77960188    -0.08980
C2502       C  0.61652774  0.01190155  0.77628237     0.29900
F2503       F  0.59037623  0.99937950  0.78863103    -0.19500
H2504       H  0.60306583  0.04054441  0.75970217     0.18260
H2505       H  0.68300260  0.00953154  0.76779177     0.18270
F2506       F  0.69424959  0.04807116  0.73664836    -0.19490
C2507       C  0.64663099  0.14831397  0.75826390    -0.20920
C2508       C  0.64518632  0.14312532  0.78054199    -0.08970
C2509       C  0.65038823  0.11979724  0.78840716     0.29890
C2510       C  0.65484187  0.10064681  0.77424195    -0.20920
C2511       C  0.65281371  0.10302449  0.75160140    -0.08980
C2512       C  0.65155701  0.12923615  0.74394552     0.29900
F2513       F  0.65337075  0.13543057  0.72254001    -0.19500
H2514       H  0.64404170  0.16720198  0.75198399     0.18260
H2515       H  0.65970208  0.08378757  0.78144955     0.18270
F2516       F  0.65035878  0.11492487  0.80993286    -0.19490
C2517       C  0.74210123  0.12277996  0.72297256    -0.20920
C2518       C  0.74226616  0.12694351  0.70065891    -0.08970
C2519       C  0.71419673  0.11797211  0.69010886     0.29890
C2520       C  0.68619839  0.10329501  0.70135916    -0.20920
C2521       C  0.68499197  0.09647053  0.72360121    -0.08980
C2522       C  0.71388419  0.10883584  0.73450535     0.29900
F2523       F  0.71481086  0.10627978  0.75621584    -0.19500
H2524       H  0.76379223  0.13074709  0.73148292     0.18260
H2525       H  0.66559653  0.09781005  0.69226127     0.18270
F2526       F  0.71374780  0.12285583  0.66861879    -0.19490
C2527       C  0.97819911  0.38037721  0.74743015    -0.20920
C2528       C  0.94877778  0.35264557  0.74643904    -0.08970
C2529       C  0.94433190  0.32957808  0.76180622     0.29890
C2530       C  0.96590102  0.33553615  0.77813191    -0.20920
C2531       C  0.99370259  0.36420899  0.77995984    -0.08980
C2532       C  0.00055388  0.38531546  0.76278918     0.29900
F2533       F  0.52876416  0.41109309  0.76009494    -0.19500
H2534       H  0.98418373  0.40024227  0.73740871     0.18260
H2535       H  0.95979781  0.31682543  0.78930481     0.18270
F2536       F  0.91875181  0.30126519  0.76251817    -0.19490
C2537       C  0.91377661  0.37279034  0.77011684    -0.20920
C2538       C  0.90056251  0.35689730  0.75048884    -0.08970
C2539       C  0.86898819  0.34791159  0.74664167     0.29890
C2540       C  0.85130221  0.35231503  0.76249118    -0.20920
C2541       C  0.86470323  0.36622301  0.78222887    -0.08980
C2542       C  0.89606286  0.37675972  0.78580867     0.29900
F2543       F  0.90979292  0.39155665  0.80445349    -0.19500
H2544       H  0.93812607  0.38268163  0.77374993     0.18260
H2545       H  0.82719788  0.34513788  0.75930286     0.18270
F2546       F  0.85541253  0.33583095  0.72738534    -0.19490
C2547       C  0.88774453  0.28828692  0.68822026    -0.20920
C2548       C  0.87126831  0.26114569  0.70015148    -0.08970
C2549       C  0.86564678  0.26337574  0.72197612     0.29890
C2550       C  0.87989835  0.29265951  0.73205931    -0.20920
C2551       C  0.90104101  0.32031682  0.72092919    -0.08980
C2552       C  0.90050506  0.31730288  0.69798162     0.29900
F2553       F  0.90876652  0.34123429  0.68420640    -0.19500
H2554       H  0.88936637  0.28702779  0.67084250     0.18260
H2555       H  0.87372280  0.29359930  0.74865433     0.18270
F2556       F  0.84691650  0.23746572  0.73355591    -0.19490
C2557       C  0.85562009  0.42390508  0.36995800    -0.20920
C2558       C  0.85326112  0.43053915  0.39186704    -0.08970
C2559       C  0.88172096  0.45047201  0.40260151     0.29890
C2560       C  0.91003151  0.46634810  0.39109285    -0.20920
C2561       C  0.91110958  0.46092051  0.36900863    -0.08980
C2562       C  0.88372403  0.43895270  0.35875513     0.29900
F2563       F  0.88401609  0.43214384  0.33756300    -0.19500
H2564       H  0.83579396  0.40654541  0.36112219     0.18260
H2565       H  0.93118686  0.48218615  0.39953432     0.18270
F2566       F  0.88220140  0.45507931  0.42418781    -0.19490
C2567       C  0.57941251  0.11440822  0.36664004    -0.20920
C2568       C  0.54739766  0.09343807  0.36825440    -0.08970
C2569       C  0.52912192  0.10143544  0.38111447     0.29890
C2570       C  0.54259553  0.12985240  0.39208764    -0.20920
C2571       C  0.57487483  0.15140601  0.39059477    -0.08980
C2572       C  0.59290194  0.14318874  0.37721372     0.29900
F2573       F  0.62380097  0.16308966  0.37441222    -0.19500
H2574       H  0.59382940  0.10913547  0.35631260     0.18260
H2575       H  0.52705705  0.13507948  0.40101774     0.18270
F2576       F  0.49794791  0.08193496  0.38277954    -0.19490
C2577       C  0.54175585  0.42117901  0.39058540    -0.20920
C2578       C  0.57443079  0.43353101  0.39029431    -0.08970
C2579       C  0.59181616  0.45870379  0.37604938     0.29890
C2580       C  0.57767780  0.47255811  0.36465873    -0.20920
C2581       C  0.54557888  0.46145922  0.36645298    -0.08980
C2582       C  0.52772731  0.43537800  0.37948810     0.29900
F2583       F  0.49644387  0.42289792  0.38118837    -0.19500
H2584       H  0.52620679  0.39985553  0.39879256     0.18260
H2585       H  0.59202536  0.49187926  0.35411488     0.18270
F2586       F  0.62283939  0.47031162  0.37331216    -0.19490
C2587       C  0.64625443  0.17408142  0.44030302    -0.20920
C2588       C  0.66249873  0.20377954  0.44952055    -0.08970
C2589       C  0.65575350  0.22661294  0.44284267     0.29890
C2590       C  0.63314449  0.21974218  0.42723253    -0.20920
C2591       C  0.61699165  0.19015616  0.41719147    -0.08980
C2592       C  0.62351859  0.16700024  0.42463446     0.29900
F2593       F  0.60666869  0.13686141  0.41848369    -0.19500
H2594       H  0.65062536  0.15591645  0.44572843     0.18260
H2595       H  0.62782146  0.23770643  0.42302355     0.18270
F2596       F  0.66990033  0.25515586  0.45218589    -0.19490
C2597       C  0.82534197  0.39637319  0.44224341    -0.20920
C2598       C  0.82243215  0.39082807  0.41971554    -0.08970
C2599       C  0.82203145  0.36359882  0.41239477     0.29890
C2600       C  0.81739239  0.34011711  0.42704801    -0.20920
C2601       C  0.81592617  0.34456083  0.44927696    -0.08980
C2602       C  0.82154180  0.37347872  0.45674798     0.29900
F2603       F  0.82197095  0.37917919  0.47819948    -0.19500
H2604       H  0.82982531  0.41826562  0.44905589     0.18260
H2605       H  0.81454389  0.31835242  0.42105883     0.18270
F2606       F  0.82329766  0.35846456  0.39102325    -0.19490
C2607       C  0.54974193  0.39448550  0.43257724    -0.20920
C2608       C  0.56776798  0.39001938  0.41684091    -0.08970
C2609       C  0.56831496  0.36164199  0.41791232     0.29890
C2610       C  0.55201594  0.33979920  0.43397118    -0.20920
C2611       C  0.53340937  0.34415322  0.44909609    -0.08980
C2612       C  0.53132938  0.37138218  0.44736556     0.29900
F2613       F  0.01145657  0.37606602  0.45974192    -0.19500
H2614       H  0.54976035  0.41627367  0.43333405     0.18260
H2615       H  0.55550430  0.32004415  0.43499053     0.18270
F2616       F  0.58732627  0.35586026  0.40541556    -0.19490
C2617       C  0.54036485  0.21494222  0.42987230    -0.20920
C2618       C  0.53053831  0.19667693  0.44861723    -0.08970
C2619       C  0.53922122  0.17381780  0.45105627     0.29890
C2620       C  0.55569791  0.16877015  0.43480248    -0.20920
C2621       C  0.56696274  0.18801692  0.41638387    -0.08980
C2622       C  0.55986897  0.21233198  0.41485931     0.29900
F2623       F  0.57334270  0.23567001  0.40033471    -0.19500
H2624       H  0.53414755  0.23258327  0.42697032     0.18260
H2625       H  0.56151998  0.15071817  0.43728255     0.18270
F2626       F  0.53383190  0.15746052  0.46957408    -0.19490
C2627       C  0.78092052  0.44242318  0.44407955    -0.20920
C2628       C  0.80277518  0.47385203  0.44656778    -0.08970
C2629       C  0.82871005  0.48759673  0.43275235     0.29890
C2630       C  0.83362032  0.46948686  0.41758547    -0.20920
C2631       C  0.81375648  0.43692305  0.41684106    -0.08980
C2632       C  0.78602238  0.42421621  0.42938744     0.29900
F2633       F  0.76488994  0.39341251  0.42885279    -0.19500
H2634       H  0.76037063  0.43158375  0.45423253     0.18260
H2635       H  0.85336305  0.48118850  0.40691137     0.18270
F2636       F  0.84921265  0.01853090  0.43394596    -0.19490
C2637       C  0.62950016  0.42817670  0.43283908    -0.20920
C2638       C  0.61518385  0.44075900  0.41972786    -0.08970
C2639       C  0.62240744  0.47178169  0.42440602     0.29890
C2640       C  0.64424492  0.48926890  0.44034926    -0.20920
C2641       C  0.65839578  0.47622189  0.45260140    -0.08980
C2642       C  0.65012473  0.44525601  0.44914002     0.29900
F2643       F  0.66202602  0.43139504  0.46168170    -0.19500
H2644       H  0.62485711  0.40470641  0.43035440     0.18260
H2645       H  0.64901995  0.01252447  0.44388464     0.18270
F2646       F  0.60853412  0.48571166  0.41432399    -0.19490
C2647       C  0.60072433  0.03128200  0.68820298    -0.20920
C2648       C  0.57923272  0.04161614  0.68717302    -0.08970
C2649       C  0.57925384  0.06133474  0.70339987     0.29890
C2650       C  0.60146205  0.07174377  0.71980432    -0.20920
C2651       C  0.62561863  0.06447432  0.71966056    -0.08980
C2652       C  0.62356129  0.04240802  0.70417418     0.29900
F2653       F  0.64478972  0.03279873  0.70380817    -0.19500
H2654       H  0.60062731  0.01549113  0.67608440     0.18260
H2655       H  0.59931512  0.08549929  0.73243577     0.18270
F2656       F  0.55739834  0.07014241  0.70360524    -0.19490
C2657       C  0.94095818  0.06296280  0.67882343    -0.20920
C2658       C  0.95680438  0.04765425  0.68484590    -0.08970
C2659       C  0.95696053  0.04009800  0.70639437     0.29890
C2660       C  0.94332931  0.04993125  0.72189085    -0.20920
C2661       C  0.93188964  0.07027061  0.71685918    -0.08980
C2662       C  0.92797353  0.07355655  0.69436199     0.29900
F2663       F  0.91001493  0.08470811  0.68663826    -0.19500
H2664       H  0.93839573  0.06653491  0.66190375     0.18260
H2665       H  0.94193153  0.04152232  0.73815073     0.18270
F2666       F  0.96951120  0.02247553  0.71238789    -0.19490
C2667       C  0.92418195  0.40132695  0.71572017    -0.20920
C2668       C  0.93466987  0.37959795  0.71697741    -0.08970
C2669       C  0.95829665  0.38338759  0.70216225     0.29890
C2670       C  0.96962491  0.40671367  0.68659141    -0.20920
C2671       C  0.95793973  0.42711339  0.68493358    -0.08980
C2672       C  0.93537313  0.42446331  0.69989633     0.29900
F2673       F  0.92382252  0.44410279  0.69926659    -0.19500
H2674       H  0.90679877  0.40055274  0.72659825     0.18260
H2675       H  0.98710325  0.40817145  0.67538899     0.18270
F2676       F  0.96939603  0.36333227  0.70213203    -0.19490
C2677       C  0.70354245  0.09286668  0.59784739    -0.20920
C2678       C  0.70607821  0.11225523  0.58038906    -0.08970
C2679       C  0.73452355  0.14085418  0.57838162     0.29890
C2680       C  0.75675456  0.15112422  0.59478317    -0.20920
C2681       C  0.75257927  0.13262066  0.61287957    -0.08980
C2682       C  0.72612109  0.10289320  0.61393686     0.29900
F2683       F  0.72143981  0.08377448  0.63085808    -0.19500
H2684       H  0.68329806  0.06992517  0.59936512     0.18260
H2685       H  0.77778019  0.17346299  0.59305717     0.18270
F2686       F  0.74222690  0.15845353  0.56031875    -0.19490
C2687       C  0.67423711  0.13944305  0.51172984    -0.20920
C2688       C  0.68761843  0.17052653  0.51820178    -0.08970
C2689       C  0.69275698  0.17752608  0.54028920     0.29890
C2690       C  0.68725888  0.15410198  0.55519823    -0.20920
C2691       C  0.67888060  0.12382367  0.54818998    -0.08980
C2692       C  0.66899341  0.11627053  0.52646967     0.29900
F2693       F  0.65501985  0.08660189  0.51904876    -0.19500
H2694       H  0.66870454  0.13305871  0.49495297     0.18260
H2695       H  0.69192456  0.16032305  0.57202975     0.18270
F2696       F  0.70341148  0.20697725  0.54741691    -0.19490
C2697       C  0.71118237  0.08993805  0.53604441    -0.20920
C2698       C  0.68553543  0.07655412  0.55040663    -0.08970
C2699       C  0.66813944  0.04361858  0.55134259     0.29890
C2700       C  0.67250743  0.02572886  0.53560122    -0.20920
C2701       C  0.69582009  0.04007313  0.51988323    -0.08980
C2702       C  0.71603304  0.07216683  0.52090210     0.29900
F2703       F  0.73958405  0.08666626  0.50642208    -0.19500
H2704       H  0.72642669  0.11481173  0.53542835     0.18260
H2705       H  0.65806321  0.50067646  0.53584175     0.18270
F2706       F  0.64800998  0.02845292  0.56768216    -0.19490
C2707       C  0.61500093  0.08429102  0.60606339    -0.20920
C2708       C  0.58885158  0.05834542  0.59760960    -0.08970
C2709       C  0.59085316  0.04747702  0.57713990     0.29890
C2710       C  0.61922551  0.06176521  0.56579956    -0.20920
C2711       C  0.64693482  0.08511368  0.57549345    -0.08980
C2712       C  0.64349638  0.09782657  0.59519116     0.29900
F2713       F  0.66750906  0.12351438  0.60417419    -0.19500
H2714       H  0.61357915  0.09363362  0.62156297     0.18260
H2715       H  0.61967296  0.05344141  0.54976867     0.18270
F2716       F  0.56544806  0.02315781  0.56813116    -0.19490
C2717       C  0.87378534  0.08522741  0.59694994    -0.20920
C2718       C  0.89626265  0.10618369  0.58218099    -0.08970
C2719       C  0.90900854  0.13847974  0.58664033     0.29890
C2720       C  0.89682372  0.14857803  0.60302702    -0.20920
C2721       C  0.87218903  0.12742864  0.61592139    -0.08980
C2722       C  0.86103415  0.09552547  0.61304546     0.29900
F2723       F  0.83839427  0.07435688  0.62611568    -0.19500
H2724       H  0.86511682  0.06051918  0.59539332     0.18260
H2725       H  0.90679235  0.17333634  0.60561362     0.18270
F2726       F  0.93438323  0.16089200  0.57621530    -0.19490
C2727       C  0.95850477  0.12737589  0.54098271    -0.20920
C2728       C  0.92809129  0.11982930  0.54716298    -0.08970
C2729       C  0.91408762  0.13449775  0.53588192     0.29890
C2730       C  0.92956068  0.15513492  0.51913822    -0.20920
C2731       C  0.95952349  0.16219093  0.51304907    -0.08980
C2732       C  0.97408870  0.14843973  0.52430167     0.29900
F2733       F  0.50359078  0.15556770  0.51931577    -0.19500
H2734       H  0.97013841  0.11629569  0.54827850     0.18260
H2735       H  0.91781966  0.16535955  0.51070127     0.18270
F2736       F  0.88489126  0.12835496  0.54086136    -0.19490
C2737       C  0.84999913  0.06113792  0.55054702    -0.20920
C2738       C  0.88153826  0.06948865  0.54836222    -0.08970
C2739       C  0.88986648  0.05878485  0.52959648     0.29890
C2740       C  0.86879303  0.04434040  0.51286002    -0.20920
C2741       C  0.83782003  0.03750707  0.51470938    -0.08980
C2742       C  0.82830815  0.04421588  0.53455352     0.29900
F2743       F  0.79798177  0.03466110  0.53875981    -0.19500
H2744       H  0.84154362  0.06849150  0.56401546     0.18260
H2745       H  0.87745815  0.03956764  0.49818792     0.18270
F2746       F  0.91936942  0.06446193  0.52663850    -0.19490
C2747       C  0.96702079  0.08372905  0.59827805    -0.20920
C2748       C  0.95619217  0.05167234  0.59711124    -0.08970
C2749       C  0.93000996  0.03315634  0.58431644     0.29890
C2750       C  0.91482692  0.04635762  0.57341338    -0.20920
C2751       C  0.92559488  0.07867899  0.57435426    -0.08980
C2752       C  0.95192073  0.09698803  0.58736708     0.29900
F2753       F  0.96309810  0.12792563  0.58974825    -0.19500
H2754       H  0.98680179  0.09865929  0.60826397     0.18260
H2755       H  0.89397809  0.03056675  0.56476123     0.18270
F2756       F  0.91827675  0.00199827  0.58279460    -0.19490
C2757       C  0.90884881  0.27902170  0.61551875    -0.20920
C2758       C  0.87721852  0.25644843  0.61587238    -0.08970
C2759       C  0.85692759  0.25910657  0.60165214     0.29890
C2760       C  0.86842088  0.28245175  0.58614225    -0.20920
C2761       C  0.90076046  0.30351701  0.58388830    -0.08980
C2762       C  0.92036178  0.30304802  0.60026977     0.29900
F2763       F  0.95117820  0.32439052  0.60046316    -0.19500
H2764       H  0.92458165  0.27818720  0.62717803     0.18260
H2765       H  0.85139871  0.28364500  0.57607047     0.18270
F2766       F  0.82587792  0.23860271  0.60242449    -0.19490
C2767       C  0.85938052  0.33801258  0.52523950    -0.20920
C2768       C  0.84387537  0.30865109  0.51544233    -0.08970
C2769       C  0.85095492  0.28594422  0.52188821     0.29890
C2770       C  0.87303080  0.29256361  0.53787677    -0.20920
C2771       C  0.88838386  0.32177509  0.54846798    -0.08980
C2772       C  0.88164779  0.34487100  0.54122894     0.29900
F2773       F  0.89769069  0.37475352  0.54803588    -0.19500
H2774       H  0.85465919  0.35607777  0.52014492     0.18260
H2775       H  0.87846342  0.27466136  0.54205290     0.18270
F2776       F  0.83750991  0.25772596  0.51210096    -0.19490
C2777       C  0.96820265  0.29927177  0.53935267    -0.20920
C2778       C  0.97761259  0.31673350  0.52020970    -0.08970
C2779       C  0.96803992  0.33876552  0.51699002     0.29890
C2780       C  0.95007377  0.34298115  0.53242227    -0.20920
C2781       C  0.93839329  0.32379660  0.55084823    -0.08980
C2782       C  0.94720470  0.30090127  0.55353531     0.29900
F2783       F  0.93418267  0.27800923  0.56839822    -0.19500
H2784       H  0.97546707  0.28262983  0.54303941     0.18260
H2785       H  0.94353262  0.36037286  0.52927716     0.18270
F2786       F  0.97375518  0.35484117  0.49830998    -0.19490
C2787       C  0.96184492  0.38184739  0.57418322    -0.20920
C2788       C  0.92956818  0.36003535  0.57580820    -0.08970
C2789       C  0.91148882  0.36820425  0.58905103     0.29890
C2790       C  0.92479911  0.39715160  0.59922954    -0.20920
C2791       C  0.95670728  0.41880050  0.59710976    -0.08980
C2792       C  0.97508607  0.41081255  0.58436973     0.29900
F2793       F  0.00611835  0.43060032  0.58212607    -0.19500
H2794       H  0.97763729  0.37668678  0.56555132     0.18260
H2795       H  0.91002055  0.40225955  0.60928565     0.18270
F2796       F  0.88062090  0.34823715  0.59194278    -0.19490
C2797       C  0.64912914  0.40706040  0.36658542    -0.20920
C2798       C  0.62862108  0.38448926  0.35208181    -0.08970
C2799       C  0.59680636  0.37502500  0.35332969     0.29890
C2800       C  0.58579232  0.38679959  0.36937488    -0.20920
C2801       C  0.60587791  0.40825876  0.38488851    -0.08980
C2802       C  0.63827557  0.41930743  0.38251243     0.29900
F2803       F  0.66007267  0.44258023  0.39474709    -0.19500
H2804       H  0.67388692  0.41554758  0.36553395     0.18260
H2805       H  0.56103943  0.37842944  0.37010070     0.18270
F2806       F  0.57612639  0.35446340  0.33899660    -0.19490
C2807       C  0.59095796  0.23216678  0.35207409    -0.20920
C2808       C  0.62236575  0.25518655  0.35093168    -0.08970
C2809       C  0.64391161  0.25273032  0.36405761     0.29890
C2810       C  0.63398551  0.22900726  0.37915280    -0.20920
C2811       C  0.60202136  0.20757811  0.38233407    -0.08980
C2812       C  0.58095788  0.20792954  0.36707801     0.29900
F2813       F  0.55023389  0.18637702  0.36791588    -0.19500
H2814       H  0.57425927  0.23277498  0.34121165     0.18260
H2815       H  0.65185902  0.22793324  0.38829391     0.18270
F2816       F  0.67478264  0.27369465  0.36252861    -0.19490
C2817       C  0.74692759  0.35719944  0.37044808    -0.20920
C2818       C  0.74778253  0.37703870  0.35410382    -0.08970
C2819       C  0.77068108  0.40865467  0.35512297     0.29890
C2820       C  0.79274852  0.41962225  0.37153118    -0.20920
C2821       C  0.79375798  0.39958479  0.38723119    -0.08980
C2822       C  0.76894353  0.36822208  0.38708712     0.29900
F2823       F  0.76403041  0.34834199  0.40347635    -0.19500
H2824       H  0.72860312  0.33308833  0.37067954     0.18260
H2825       H  0.81017439  0.44408262  0.37155974     0.18270
F2826       F  0.77237941  0.42913743  0.34000507    -0.19490
C2827       C  0.54395148  0.43915206  0.28414614    -0.20920
C2828       C  0.54009354  0.46446507  0.27913053    -0.08970
C2829       C  0.54497822  0.47536649  0.25790604     0.29890
C2830       C  0.55484214  0.46183746  0.24222256    -0.20920
C2831       C  0.56262795  0.43887188  0.24761306    -0.08980
C2832       C  0.55463989  0.42617807  0.26869649     0.29900
F2833       F  0.55581793  0.40047807  0.27446231    -0.19500
H2834       H  0.53876723  0.42938501  0.30023571     0.18260
H2835       H  0.55761041  0.47037291  0.22590673     0.18270
F2836       F  0.53938814  0.49846608  0.25219474    -0.19490
C2837       C  0.61636837  0.42788600  0.25616443    -0.20920
C2838       C  0.59319152  0.41039227  0.24076444    -0.08970
C2839       C  0.58835974  0.38035047  0.23570407     0.29890
C2840       C  0.60288219  0.36733052  0.24778892    -0.20920
C2841       C  0.62400548  0.38430735  0.26419860    -0.08980
C2842       C  0.63130863  0.41519322  0.26776341     0.29900
F2843       F  0.65187124  0.43293325  0.28322566    -0.19500
H2844       H  0.62208393  0.45146470  0.25989290     0.18260
H2845       H  0.59787447  0.34395912  0.24409026     0.18270
F2846       F  0.57126050  0.36384067  0.21855056    -0.19490
C2847       C  0.54235716  0.10476642  0.24323033    -0.20920
C2848       C  0.56344804  0.13621196  0.24893789    -0.08970
C2849       C  0.57095693  0.14229602  0.27123143     0.29890
C2850       C  0.55744238  0.11847411  0.28648968    -0.20920
C2851       C  0.53570743  0.08807869  0.28054668    -0.08980
C2852       C  0.52819173  0.08126860  0.25877311     0.29900
F2853       F  0.00801224  0.05172471  0.25244314    -0.19500
H2854       H  0.53642109  0.09854490  0.22647655     0.18260
H2855       H  0.56413213  0.12384477  0.30324378     0.18270
F2856       F  0.59190437  0.17070794  0.27888152    -0.19490
C2857       C  0.55562460  0.17647427  0.19734048    -0.20920
C2858       C  0.54932229  0.15948506  0.21668076    -0.08970
C2859       C  0.51720467  0.14249282  0.22269240     0.29890
C2860       C  0.99376122  0.13723382  0.20784670    -0.20920
C2861       C  0.50131349  0.15034869  0.18716830    -0.08980
C2862       C  0.53269572  0.17114875  0.18251218     0.29900
F2863       F  0.54196299  0.18541820  0.16307137    -0.19500
H2864       H  0.57826474  0.19419303  0.19284066     0.18260
H2865       H  0.96964042  0.12303242  0.21263508     0.18270
F2866       F  0.00798901  0.13259878  0.24317157    -0.19490
C2867       C  0.57767769  0.20903804  0.24784958    -0.20920
C2868       C  0.59459870  0.19470909  0.24088420    -0.08970
C2869       C  0.62688486  0.21007755  0.24588708     0.29890
C2870       C  0.64130285  0.23890437  0.25639057    -0.20920
C2871       C  0.62405360  0.25271423  0.26318598    -0.08980
C2872       C  0.59200017  0.23745908  0.25861494     0.29900
F2873       F  0.57389864  0.24925274  0.26528853    -0.19500
H2874       H  0.55278891  0.19781514  0.24564678     0.18260
H2875       H  0.66574465  0.24951415  0.26036343     0.18270
F2876       F  0.64434200  0.19653077  0.24208608    -0.19490
C2877       C  0.89135540  0.42836848  0.25113743    -0.20920
C2878       C  0.86973446  0.43904140  0.24945135    -0.08970
C2879       C  0.86927434  0.45772701  0.26657284     0.29890
C2880       C  0.89200117  0.46849762  0.28269123    -0.20920
C2881       C  0.91506863  0.45997065  0.28282372    -0.08980
C2882       C  0.91396501  0.43912014  0.26713186     0.29900
F2883       F  0.93500310  0.42924656  0.26692723    -0.19500
H2884       H  0.89125560  0.41136363  0.24026157     0.18260
H2885       H  0.89160301  0.98374001  0.29504562     0.18270
F2886       F  0.84765547  0.46682542  0.26718477    -0.19490
C2887       C  0.87573300  0.50861806  0.20225245    -0.20920
C2888       C  0.85979993  0.49885167  0.18254631    -0.08970
C2889       C  0.83692260  0.46741414  0.18029642     0.29890
C2890       C  0.83059012  0.44677491  0.19717660    -0.20920
C2891       C  0.84891936  0.45549537  0.21610580    -0.08980
C2892       C  0.87158675  0.48736644  0.21839863     0.29900
F2893       F  0.89146125  0.49859331  0.23519146    -0.19500
H2894       H  0.89279739  0.03281358  0.20495517     0.18260
H2895       H  0.81285860  0.42275663  0.19462540     0.18270
F2896       F  0.82217819  0.45566345  0.16131233    -0.19490
C2897       C  0.79120694  0.42213525  0.23979677    -0.20920
C2898       C  0.81287871  0.41154994  0.24165521    -0.08970
C2899       C  0.80487419  0.38610216  0.25552236     0.29890
C2900       C  0.77665442  0.37195772  0.26669451    -0.20920
C2901       C  0.75554661  0.38287626  0.26485816    -0.08980
C2902       C  0.76295194  0.40789570  0.25101907     0.29900
F2903       F  0.74328365  0.41921516  0.24864429    -0.19500
H2904       H  0.79606688  0.44221116  0.23028283     0.18260
H2905       H  0.77184714  0.35290828  0.27742263     0.18270
F2906       F  0.82468993  0.37510306  0.25858420    -0.19490
C2907       C  0.88332277  0.40370242  0.18645343    -0.20920
C2908       C  0.86029088  0.37326505  0.18182869    -0.08970
C2909       C  0.83222623  0.35978726  0.19347081     0.29890
C2910       C  0.82731918  0.37676942  0.20945363    -0.20920
C2911       C  0.85065499  0.40743453  0.21460093    -0.08980
C2912       C  0.87871314  0.42061024  0.20242576     0.29900
F2913       F  0.90183820  0.45025570  0.20593499    -0.19500
H2914       H  0.90496624  0.41463588  0.17745069     0.18260
H2915       H  0.80481156  0.36577252  0.21718548     0.18270
F2916       F  0.80963012  0.33004296  0.18956169    -0.19490
C2917       C  0.52499767  0.37556307  0.22194703    -0.20920
C2918       C  0.54821322  0.40561297  0.21537256    -0.08970
C2919       C  0.54282796  0.41676613  0.19566355     0.29890
C2920       C  0.52002975  0.39670673  0.18143566    -0.20920
C2921       C  0.50022679  0.36568792  0.18682780    -0.08980
C2922       C  0.50172183  0.35541070  0.20757879     0.29900
F2923       F  0.48105805  0.32596939  0.21379510    -0.19500
H2924       H  0.52595320  0.36707454  0.23779977     0.18260
H2925       H  0.51746903  0.40561619  0.16612535     0.18270
F2926       F  0.55874729  0.44721953  0.19004625    -0.19490
C2927       C  0.61688431  0.48460293  0.22139156    -0.20920
C2928       C  0.60282597  0.45258502  0.21650516    -0.08970
C2929       C  0.61246774  0.44437461  0.19735523     0.29890
C2930       C  0.62802043  0.46645550  0.18143773    -0.20920
C2931       C  0.63733909  0.49793053  0.18483341    -0.08980
C2932       C  0.63364200  0.00706676  0.20565005     0.29900
F2933       F  0.64591426  0.03752823  0.21081738    -0.19500
H2934       H  0.61408624  0.99244473  0.23706652     0.18260
H2935       H  0.63079143  0.45813444  0.16592935     0.18270
F2936       F  0.60293357  0.41425428  0.19262744    -0.19490
C2937       C  0.63150937  0.17013542  0.18277666    -0.20920
C2938       C  0.63208747  0.14212903  0.18302047    -0.08970
C2939       C  0.61989644  0.12344671  0.20165145     0.29890
C2940       C  0.60332704  0.13001229  0.21715888    -0.20920
C2941       C  0.59933990  0.15624771  0.21547126    -0.08980
C2942       C  0.61803289  0.17817356  0.19948522     0.29900
F2943       F  0.62592804  0.20853545  0.20067648    -0.19500
H2944       H  0.64195188  0.18683354  0.16994825     0.18260
H2945       H  0.59461958  0.11448108  0.23074072     0.18270
F2946       F  0.62483376  0.09946509  0.20572503    -0.19490
C2947       C  0.71808889  0.41504365  0.92610887    -0.20920
C2948       C  0.71034072  0.42027903  0.94677841    -0.08970
C2949       C  0.71381575  0.44935383  0.95155999     0.29890
C2950       C  0.72486619  0.47278217  0.93605060    -0.20920
C2951       C  0.73187187  0.46809674  0.91464882    -0.08980
C2952       C  0.72799983  0.43808591  0.91013689     0.29900
F2953       F  0.73206876  0.42998652  0.88998542    -0.19500
H2954       H  0.71513831  0.39251820  0.92200769     0.18260
H2955       H  0.72749575  0.49437864  0.94156970     0.18270
F2956       F  0.70690913  0.45543629  0.97155514    -0.19490
C2957       C  0.53740304  0.29437614  0.92886433    -0.20920
C2958       C  0.53551125  0.27087159  0.91491792    -0.08970
C2959       C  0.55487353  0.25820225  0.91996752     0.29890
C2960       C  0.57799312  0.27191598  0.93555285    -0.20920
C2961       C  0.58220525  0.29782178  0.94725614    -0.08980
C2962       C  0.56118669  0.30856233  0.94421643     0.29900
F2963       F  0.56311695  0.33217397  0.95641850    -0.19500
H2964       H  0.52140129  0.30303018  0.92694870     0.18260
H2965       H  0.59272163  0.26199759  0.93856234     0.18270
F2966       F  0.55100108  0.23163121  0.91089976    -0.19490
C2967       C  0.68586619  0.26676847  0.93599045    -0.20920
C2968       C  0.70596257  0.29183587  0.94897681    -0.08970
C2969       C  0.73826977  0.30370524  0.94685080     0.29890
C2970       C  0.74990470  0.29216528  0.93096910    -0.20920
C2971       C  0.73003941  0.26978187  0.91592849    -0.08980
C2972       C  0.69746441  0.25522158  0.92014870     0.29900
F2973       F  0.67638021  0.22900169  0.90982680    -0.19500
H2974       H  0.66090512  0.25581271  0.93813805     0.18260
H2975       H  0.77484717  0.30194798  0.92970133     0.18270
F2976       F  0.75884145  0.32668332  0.95994431    -0.19490
C2977       C  0.77520346  0.09268535  0.03786270    -0.20920
C2978       C  0.78926822  0.08985757  0.01913618    -0.08970
C2979       C  0.79186994  0.06331975  0.01633780     0.29890
C2980       C  0.78066475  0.04013819  0.03195556    -0.20920
C2981       C  0.76656644  0.04217339  0.05130925    -0.08980
C2982       C  0.76474707  0.06992273  0.05394018     0.29900
F2983       F  0.75623673  0.07741272  0.07282122    -0.19500
H2984       H  0.77376218  0.11347265  0.04062434     0.18260
H2985       H  0.78368897  0.02091223  0.02815666     0.18270
F2986       F  0.80507555  0.05940693  0.99825584    -0.19490
C2987       C  0.78685108  0.99707210  0.09217954    -0.20920
C2988       C  0.78621203  0.02222592  0.08190669    -0.08970
C2989       C  0.80951219  0.05262379  0.08821441     0.29890
C2990       C  0.83137176  0.05716298  0.10391793    -0.20920
C2991       C  0.83177791  0.03203573  0.11373282    -0.08980
C2992       C  0.80977600  0.00181991  0.10711974     0.29900
F2993       F  0.80991829  0.47659755  0.11530765    -0.19500
H2994       H  0.76870057  0.47332476  0.08948975     0.18260
H2995       H  0.84729887  0.08075554  0.10899300     0.18270
F2996       F  0.81040143  0.07854033  0.08069862    -0.19490
C2997       C  0.68888358  0.02516633  0.09389209    -0.20920
C2998       C  0.69597185  0.02832906  0.11589549    -0.08970
C2999       C  0.72176522  0.02660637  0.12294822     0.29890
C3000       C  0.73998637  0.02153681  0.10838955    -0.20920
C3001       C  0.73408622  0.01911478  0.08591183    -0.08980
C3002       C  0.70753440  0.02058242  0.07905104     0.29900
F3003       F  0.70012640  0.01842389  0.05783185    -0.19500
H3004       H  0.66887569  0.02627155  0.08818691     0.18260
H3005       H  0.75906442  0.02016238  0.11539055     0.18270
F3006       F  0.73009296  0.03077284  0.14404677    -0.19490
C3007       C  0.70722179  0.46232503  0.05985023    -0.20920
C3008       C  0.73991850  0.48302996  0.05867482    -0.08970
C3009       C  0.75722522  0.47130897  0.04773724     0.29890
C3010       C  0.74247368  0.44348603  0.03620312    -0.20920
C3011       C  0.70996362  0.42532380  0.03547387    -0.08980
C3012       C  0.69247461  0.43449141  0.04810179     0.29900
F3013       F  0.66100035  0.41679944  0.04902737    -0.19500
H3014       H  0.69209132  0.46686007  0.06968406     0.18260
H3015       H  0.75688518  0.43644289  0.02747416     0.18270
F3016       F  0.78881005  0.48629298  0.04833164    -0.19490
C3017       C  0.94657034  0.25155228  0.04502955    -0.20920
C3018       C  0.96303615  0.23627727  0.05077328    -0.08970
C3019       C  0.95810379  0.21046007  0.03802798     0.29890
C3020       C  0.93465304  0.19805956  0.02244077    -0.20920
C3021       C  0.91699274  0.21223035  0.01805138    -0.08980
C3022       C  0.92380596  0.23965970  0.02905770     0.29900
F3023       F  0.90791988  0.25469553  0.02476763    -0.19500
H3024       H  0.95098379  0.27277440  0.05295292     0.18260
H3025       H  0.93063437  0.17761045  0.01351931     0.18270
F3026       F  0.97504033  0.19626906  0.04127922    -0.19490
C3027       C  0.50676673  0.29743362  0.09374941    -0.20920
C3028       C  0.98184087  0.26951140  0.08544863    -0.08970
C3029       C  0.95196821  0.25896598  0.09464213     0.29890
C3030       C  0.94734754  0.27574782  0.11073277    -0.20920
C3031       C  0.97199505  0.30363040  0.11853960    -0.08980
C3032       C  0.50188611  0.31446821  0.10984131     0.29900
F3033       F  0.52640267  0.34159719  0.11672622    -0.19500
H3034       H  0.53039503  0.30591648  0.08839302     0.18260
H3035       H  0.92418323  0.26641557  0.11744331     0.18270
F3036       F  0.92679307  0.23202086  0.08827068    -0.19490
C3037       C  0.95364814  0.19333027  0.08627729    -0.20920
C3038       C  0.98246547  0.22128789  0.08470898    -0.08970
C3039       C  0.50521996  0.22663202  0.10042513     0.29890
C3040       C  0.50019504  0.20402211  0.11564530    -0.20920
C3041       C  0.97133413  0.17649991  0.11719358    -0.08980
C3042       C  0.94783625  0.17179376  0.10250352     0.29900
F3043       F  0.91843551  0.14742349  0.10450331    -0.19500
H3044       H  0.93437775  0.18866198  0.07591161     0.18260
H3045       H  0.51897751  0.20859923  0.12652563     0.18270
F3046       F  0.53238078  0.25407730  0.10138299    -0.19490
C3047       C  0.53737352  0.24977508  0.05605263    -0.20920
C3048       C  0.51908669  0.26421743  0.05814163    -0.08970
C3049       C  0.52955618  0.29265819  0.04715379     0.29890
C3050       C  0.55796667  0.30692546  0.03613155    -0.20920
C3051       C  0.57644569  0.29287282  0.03478305    -0.08980
C3052       C  0.56569797  0.26396001  0.04486278     0.29900
F3053       F  0.58189531  0.24867416  0.04332815    -0.19500
H3054       H  0.52957273  0.22688623  0.06255087     0.18260
H3055       H  0.56500648  0.32873878  0.02802970     0.18270
F3056       F  0.51221448  0.30680392  0.04693499    -0.19490
C3057       C  0.79323651  0.23292930  0.05603819    -0.20920
C3058       C  0.76925397  0.23961371  0.05087046    -0.08970
C3059       C  0.76238177  0.23865055  0.02840686     0.29890
C3060       C  0.77529958  0.22756486  0.01321617    -0.20920
C3061       C  0.79729342  0.21938999  0.01905204    -0.08980
C3062       C  0.80707953  0.22313458  0.04046701     0.29900
F3063       F  0.82910312  0.21614279  0.04651866    -0.19500
H3064       H  0.80123795  0.23493861  0.07247433     0.18260
H3065       H  0.76848084  0.22598152  0.99647804     0.18270
F3066       F  0.74425122  0.24909355  0.02006466    -0.19490
C3067       C  0.83259933  0.31012198  0.09476869    -0.20920
C3068       C  0.82582210  0.30576712  0.11686260    -0.08970
C3069       C  0.79535847  0.28532141  0.12349045     0.29890
C3070       C  0.77235449  0.26855893  0.10843218    -0.20920
C3071       C  0.77868982  0.27092235  0.08598003    -0.08980
C3072       C  0.80930082  0.29355029  0.07946038     0.29900
F3073       F  0.81685551  0.29971009  0.05829402    -0.19500
H3074       H  0.85589177  0.32670478  0.08937006     0.18260
H3075       H  0.74969369  0.25345969  0.11507834     0.18270
F3076       F  0.78784709  0.28080758  0.14476233    -0.19490
C3077       C  0.73569178  0.19482847  0.08704999    -0.20920
C3078       C  0.72921895  0.21892326  0.08236210    -0.08970
C3079       C  0.70354441  0.21771740  0.09379145     0.29890
C3080       C  0.68593430  0.19391227  0.10845152    -0.20920
C3081       C  0.69386919  0.17131205  0.11355792    -0.08980
C3082       C  0.71908120  0.17211870  0.10259509     0.29900
F3083       F  0.72928917  0.15221994  0.10778133    -0.19500
H3084       H  0.75452736  0.19351080  0.07969077     0.18260
H3085       H  0.66668444  0.19408220  0.11660834     0.18270
F3086       F  0.69730866  0.24134261  0.09300247    -0.19490
C3087       C  0.75015915  0.29821885  0.05928378    -0.20920
C3088       C  0.73648421  0.26540882  0.05960428    -0.08970
C3089       C  0.70707703  0.24790825  0.04945275     0.29890
C3090       C  0.69328905  0.26253923  0.03873216    -0.20920
C3091       C  0.70820217  0.29505600  0.03716156    -0.08980
C3092       C  0.73647248  0.31281053  0.04808901     0.29900
F3093       F  0.75165995  0.34432559  0.04731330    -0.19500
H3094       H  0.77214606  0.31319359  0.06694155     0.18260
H3095       H  0.67149450  0.24802216  0.03051891     0.18270
F3096       F  0.69282679  0.21645006  0.04811017    -0.19490
C3097       C  0.75330441  0.74880484  0.06945917    -0.02110
C3098       C  0.98683421  0.74802400  0.06959797    -0.02110
C3099       C  0.75654603  0.51650770  0.06933026    -0.02110
O3100       O  0.62010919  0.79338143  0.01783873    -0.81420
C3101       C  0.69756779  0.89550031  0.96328569     0.97940
O3102       O  0.67489421  0.89208259  0.97466996    -0.70530
O3103       O  0.62187079  0.83972494  0.96769271    -0.74120
Al3104     Al  0.64553535  0.85951117  0.99296061     1.48980
C3105       C  0.60663710  0.81087802  0.96394256     0.93190
O3106       O  0.66418890  0.79257978  0.96779042    -0.80350
O3107       O  0.70933504  0.83819571  0.01880087    -0.73900
Al3108     Al  0.64385734  0.79611042  0.99289633     1.90120
O3109       O  0.71156895  0.82813704  0.97583841    -0.72970
O3110       O  0.71284535  0.89188993  0.00961541    -0.72820
O3111       O  0.70973756  0.87880754  0.96644235    -0.78480
O3112       O  0.66619289  0.88228645  0.01839642    -0.76690
O3113       O  0.66535119  0.83761335  0.99289615    -1.12820
O3114       O  0.61184266  0.83173350  0.01087373    -0.72010
C3115       C  0.60462863  0.80691740  0.02079030     0.98700
C3116       C  0.69314757  0.80478725  0.96496873     0.95100
Al3117     Al  0.70704349  0.85750088  0.99271862     1.55560
O3118       O  0.61193428  0.79228519  0.97433102    -0.76640
C3119       C  0.69533415  0.89809037  0.02072060     0.99270
C3120       C  0.69551254  0.80918214  0.02207237     0.94150
O3121       O  0.67147430  0.79121871  0.01144193    -0.81960
C3122       C  0.64611499  0.63351541  0.16438394     0.03510
C3123       C  0.66602499  0.65605355  0.14931523    -0.12640
C3124       C  0.67620623  0.64771282  0.13066274     0.01010
C3125       C  0.66976175  0.61699675  0.12848489    -0.11160
C3126       C  0.65364116  0.59454048  0.14462426     0.03500
C3127       C  0.63911649  0.60254631  0.16105782    -0.10580
H3128       H  0.67392807  0.68036823  0.15172756     0.09100
H3129       H  0.67751366  0.61120849  0.11394464     0.06630
H3130       H  0.62181471  0.58452000  0.17099392     0.06470
C3131       C  0.67658431  0.53321998  0.13174345     0.03510
C3132       C  0.66976529  0.55707015  0.12906722    -0.12640
C3133       C  0.65458947  0.56449604  0.14544502     0.01010
C3134       C  0.64396900  0.54479913  0.16383794    -0.11160
C3135       C  0.65000466  0.52008823  0.16634926     0.03500
C3136       C  0.66703120  0.01525593  0.15037216    -0.10580
H3137       H  0.67806287  0.57029120  0.11443325     0.09100
H3138       H  0.63105073  0.54830145  0.17640294     0.06630
H3139       H  0.67309499  0.99729823  0.15230432     0.06470
C3140       C  0.96550641  0.82039718  0.13586517     0.03510
C3141       C  0.48495002  0.83266442  0.15386807    -0.12640
C3142       C  0.97672054  0.84582418  0.17082133     0.01010
C3143       C  0.94841554  0.84551415  0.17021756    -0.11160
C3144       C  0.92900033  0.83477522  0.15186293     0.03500
C3145       C  0.93851225  0.82281578  0.13465663    -0.10580
H3146       H  0.50651678  0.83224160  0.15473637     0.09100
H3147       H  0.94281998  0.85484216  0.18411890     0.06630
H3148       H  0.92543321  0.81549665  0.11988326     0.06470
C3149       C  0.84994648  0.82320652  0.13320667     0.03510
C3150       C  0.87696761  0.82086923  0.13429602    -0.12640
C3151       C  0.89969533  0.83682380  0.15041636     0.01010
C3152       C  0.89388366  0.85477036  0.16538591    -0.11160
C3153       C  0.86623311  0.85578613  0.16504450     0.03500
C3154       C  0.84467583  0.84052032  0.14871980    -0.10580
H3155       H  0.87912610  0.80567204  0.12284782     0.09100
H3156       H  0.91045151  0.86823754  0.17767416     0.06630
H3157       H  0.82374591  0.84219681  0.14802807     0.06470
C3158       C  0.84555577  0.92855026  0.23075641    -0.02110
C3159       C  0.57690277  0.66168827  0.23073786    -0.02110
C3160       C  0.57639780  0.92646116  0.23017017    -0.02110
O3161       O  0.62031800  0.78685465  0.28790900    -0.81420
C3162       C  0.72445075  0.86511166  0.33645757     0.97940
O3163       O  0.70801581  0.83630744  0.33292802    -0.70530
O3164       O  0.65725731  0.78452562  0.32380479    -0.74120
Al3165     Al  0.68665355  0.81743205  0.30674320     1.48980
C3166       C  0.63372946  0.77971768  0.33448780     0.93190
O3167       O  0.62152197  0.84848938  0.32441640    -0.80350
O3168       O  0.66147836  0.88706961  0.28891987    -0.73900
Al3169     Al  0.62524971  0.81966163  0.30605686     1.90120
O3170       O  0.66937756  0.88401041  0.33206127    -0.72970
O3171       O  0.71174647  0.88286185  0.28121832    -0.72820
O3172       O  0.72148517  0.88419647  0.32480579    -0.78480
O3173       O  0.72111757  0.84566575  0.28975954    -0.76690
O3174       O  0.66688584  0.83923899  0.30642440    -1.12820
O3175       O  0.66722345  0.79526409  0.28089113    -0.72010
C3176       C  0.63817701  0.78016647  0.27767273     0.98700
C3177       C  0.64050135  0.87165008  0.33538319     0.95100
Al3178     Al  0.68901989  0.88078595  0.30664525     1.55560
O3179       O  0.62068957  0.79557876  0.33123555    -0.76640
C3180       C  0.72764613  0.86960324  0.27896580     0.99270
C3181       C  0.63726202  0.86977398  0.27831457     0.94150
O3182       O  0.62358269  0.84067229  0.28073551    -0.81960
C3183       C  0.96556530  0.65352909  0.13453189     0.03510
C3184       C  0.98035456  0.66315217  0.15453729    -0.12640
C3185       C  0.97743586  0.64130975  0.16996512     0.01010
C3186       C  0.95390367  0.61020000  0.16730794    -0.11160
C3187       C  0.93638173  0.60018709  0.14805521     0.03500
C3188       C  0.94552102  0.62171095  0.13104714    -0.10580
H3189       H  0.49532386  0.68762572  0.15786897     0.09100
H3190       H  0.95001279  0.59419029  0.18020764     0.06630
H3191       H  0.93692283  0.61403595  0.11498991     0.06470
C3192       C  0.86835688  0.52119514  0.16430018     0.03510
C3193       C  0.84614667  0.51802169  0.14904458    -0.12640
C3194       C  0.85471770  0.53757278  0.13105641     0.01010
C3195       C  0.88487756  0.56337495  0.13016339    -0.11160
C3196       C  0.90703661  0.56906488  0.14633907     0.03500
C3197       C  0.89900947  0.54612215  0.16220033    -0.10580
H3198       H  0.82197355  0.00068923  0.15123529     0.09100
H3199       H  0.89034367  0.57920680  0.11693519     0.06630
H3200       H  0.91646047  0.54759745  0.17315154     0.06470
C3201       C  0.91431718  0.82738082  0.56500570    -0.02110
C3202       C  0.90794304  0.59348287  0.56333130    -0.02110
C3203       C  0.67904021  0.59933914  0.56373674    -0.02110
O3204       O  0.99323721  0.55546018  0.62292961    -0.81420
C3205       C  0.96913928  0.95043306  0.66735032     0.97940
O3206       O  0.95606732  0.96628166  0.66399069    -0.70530
O3207       O  0.95256147  0.51629455  0.65538349    -0.74120
Al3208     Al  0.95865826  0.98796899  0.63827230     1.48980
C3209       C  0.97031563  0.53697699  0.66830400     0.93190
O3210       O  0.55212483  0.55201952  0.66034974    -0.80350
O3211       O  0.55332482  0.51591113  0.61892502    -0.73900
Al3212     Al  0.52101886  0.54955203  0.64134971     1.90120
O3213       O  0.54400705  0.50457937  0.66238177    -0.72970
O3214       O  0.99964729  0.96506095  0.61156422    -0.72820
O3215       O  0.99148208  0.95373686  0.65549768    -0.78480
O3216       O  0.95296691  0.95363138  0.62131784    -0.76690
O3217       O  0.00033384  0.50823386  0.63873685    -1.12820
O3218       O  0.95777564  0.50846850  0.61266645    -0.72010
C3219       C  0.97016900  0.53772888  0.61120275     0.98700
C3220       C  0.55721422  0.53216055  0.66906453     0.95100
Al3221     Al  0.52038619  0.98677572  0.63712002     1.55560
O3222       O  0.99927883  0.54889169  0.66677115    -0.76640
C3223       C  0.97060888  0.94770472  0.61021913     0.99270
C3224       C  0.56079916  0.54224768  0.61124879     0.94150
O3225       O  0.54657856  0.55628452  0.61675115    -0.81960
C3226       C  0.69985014  0.52228775  0.50232375     0.03510
C3227       C  0.67688184  0.00760525  0.48653175    -0.12640
C3228       C  0.68294685  0.99466619  0.46836766     0.01010
C3229       C  0.71237965  0.99764149  0.46561873    -0.11160
C3230       C  0.73543954  0.51110395  0.48163844     0.03500
C3231       C  0.72823819  0.52282699  0.50022121    -0.10580
H3232       H  0.65458780  0.00642355  0.48831945     0.09100
H3233       H  0.71646177  0.98885225  0.45079909     0.06630
H3234       H  0.74430177  0.53263205  0.51345838     0.06470
C3235       C  0.79805225  0.49199594  0.46356861     0.03510
C3236       C  0.81982204  0.50586147  0.48013090    -0.12640
C3237       C  0.81584861  0.52383051  0.49607251     0.01010
C3238       C  0.79042673  0.52876820  0.49413685    -0.11160
C3239       C  0.76590994  0.51140550  0.47966507     0.03500
C3240       C  0.77052461  0.49328785  0.46412963    -0.10580
H3241       H  0.83919621  0.50169337  0.48065680     0.09100
H3242       H  0.79001588  0.54635635  0.50405704     0.06630
H3243       H  0.75306773  0.97970030  0.45233290     0.06470
C3244       C  0.51232991  0.70261747  0.46543975     0.03510
C3245       C  0.99214830  0.67907482  0.47963254    -0.12640
C3246       C  0.97606897  0.68511374  0.49569562     0.01010
C3247       C  0.97640569  0.71343908  0.49563407    -0.11160
C3248       C  0.99587855  0.73759988  0.48146370     0.03500
C3249       C  0.51505783  0.73221358  0.46739132    -0.10580
H3250       H  0.98838102  0.65577034  0.47837870     0.09100
H3251       H  0.96170623  0.71620360  0.50716251     0.06630
H3252       H  0.53277764  0.75140106  0.45826986     0.06470
C3253       C  0.99317217  0.80879079  0.50256733     0.03510
C3254       C  0.98804109  0.77843792  0.50050321    -0.12640
C3255       C  0.49812886  0.76898016  0.48229300     0.01010
C3256       C  0.51050788  0.78995353  0.46489312    -0.11160
C3257       C  0.51793588  0.82122296  0.46704896     0.03500
C3258       C  0.51120844  0.83059312  0.48678688    -0.10580
H3259       H  0.97582823  0.76217318  0.51311664     0.09100
H3260       H  0.51423300  0.78182471  0.44963897     0.06630
H3261       H  0.51978157  0.85488101  0.48998389     0.06470
C3262       C  0.82142199  0.80248025  0.49785820     0.03510
C3263       C  0.79168286  0.77590435  0.49821307    -0.12640
C3264       C  0.76924032  0.77049180  0.48219735     0.01010
C3265       C  0.77838999  0.79303741  0.46554851    -0.11160
C3266       C  0.80827865  0.81938182  0.46496617     0.03500
C3267       C  0.82957380  0.82386563  0.48109699    -0.10580
H3268       H  0.78661117  0.76027918  0.51152767     0.09100
H3269       H  0.76246438  0.79166402  0.45330548     0.06630
H3270       H  0.85245449  0.84447856  0.48078239     0.06470
C3271       C  0.69640577  0.69488610  0.50147191     0.03510
C3272       C  0.72641245  0.72120029  0.50085113    -0.12640
C3273       C  0.73656346  0.74235859  0.48324118     0.01010
C3274       C  0.71498432  0.73580119  0.46637449    -0.11160
C3275       C  0.68477478  0.71007800  0.46720210     0.03500
C3276       C  0.67568827  0.68993235  0.48476076    -0.10580
H3277       H  0.74154021  0.72387434  0.51402833     0.09100
H3278       H  0.72109909  0.74979799  0.45203957     0.06630
H3279       H  0.65234862  0.67002598  0.48531740     0.06470
C3280       C  0.59086892  0.91852706  0.40283479    -0.02110
C3281       C  0.59011904  0.68409503  0.40140541    -0.02110
C3282       C  0.82102385  0.91435796  0.40386706    -0.02110
O3283       O  0.54806536  0.49871966  0.34142735    -0.81420
C3284       C  0.93983345  0.97262278  0.29935743     0.97940
O3285       O  0.95666754  0.96052099  0.30217390    -0.70530
O3286       O  0.50829412  0.95932453  0.30881152    -0.74120
Al3287     Al  0.98001895  0.96398712  0.32716365     1.48980
C3288       C  0.52914396  0.97765779  0.29603071     0.93190
O3289       O  0.54384550  0.55968835  0.30721407    -0.80350
O3290       O  0.50730136  0.55886121  0.34507806    -0.73900
Al3291     Al  0.54116303  0.52695907  0.32447945     1.90120
O3292       O  0.49554588  0.54746564  0.30150586    -0.72970
O3293       O  0.95638935  0.00497332  0.35418267    -0.72820
O3294       O  0.94380217  0.49551007  0.31065681    -0.78480
O3295       O  0.94662154  0.95831609  0.34526828    -0.76690
O3296       O  0.49966206  0.50546637  0.32668710    -1.12820
O3297       O  0.50160154  0.96296252  0.35214170    -0.72010
C3298       C  0.53087810  0.97535653  0.35304468     0.98700
C3299       C  0.52415755  0.56352166  0.29707911     0.95100
Al3300     Al  0.97778138  0.52508530  0.32783184     1.55560
O3301       O  0.54110842  0.50668298  0.29818147    -0.76640
C3302       C  0.94024081  0.97579287  0.35620207     0.99270
C3303       C  0.53272432  0.56572896  0.35409969     0.94150
O3304       O  0.54635136  0.55051779  0.35004094    -0.81960
C3305       C  0.92105482  0.85206655  0.73346742    -0.02110
C3306       C  0.65339031  0.57866900  0.73585409    -0.02110
C3307       C  0.92256696  0.58559216  0.73574427    -0.02110
O3308       O  0.78833224  0.62949371  0.68706453    -0.81420
C3309       C  0.86478841  0.73151070  0.63203097     0.97940
O3310       O  0.84135919  0.72683177  0.64285669    -0.70530
O3311       O  0.79212885  0.67351776  0.63345860    -0.74120
Al3312     Al  0.81176998  0.69287115  0.65971117     1.49160
C3313       C  0.77573249  0.64456225  0.63050190     0.93190
O3314       O  0.83104217  0.62557851  0.63701797    -0.80350
O3315       O  0.87709678  0.67386651  0.68611247    -0.73900
Al3316     Al  0.81108129  0.63045341  0.66179993     1.90120
O3317       O  0.87846916  0.66395667  0.64277094    -0.72970
O3318       O  0.87773728  0.72635610  0.67816612    -0.72820
O3319       O  0.87735129  0.71524007  0.63503455    -0.78480
O3320       O  0.82974429  0.71464148  0.68589434    -0.76690
O3321       O  0.83242958  0.67203265  0.66070266    -1.12820
O3322       O  0.77658947  0.66407005  0.67602720    -0.72010
C3323       C  0.77113657  0.64140029  0.68788044     0.98700
C3324       C  0.85978981  0.63940617  0.63284447     0.95100
Al3325     Al  0.87399764  0.69290893  0.66063828     1.55560
O3326       O  0.77837447  0.62572957  0.64280102    -0.76640
C3327       C  0.85874994  0.73165823  0.68837356     0.99270
C3328       C  0.86377574  0.64517428  0.68997726     0.94150
O3329       O  0.83908825  0.62637289  0.68039236    -0.81960
C3330       C  0.81680578  0.97274868  0.83239032     0.03510
C3331       C  0.81640381  0.94439671  0.83210164    -0.12640
C3332       C  0.83034523  0.93661835  0.81501087     0.01010
C3333       C  0.84666454  0.95968082  0.79911967    -0.11160
C3334       C  0.84707711  0.48812509  0.79924718     0.03500
C3335       C  0.83158277  0.49410051  0.81580596    -0.10580
H3336       H  0.80463055  0.92883885  0.84531117     0.09100
H3337       H  0.86014518  0.95666219  0.78676975     0.06630
H3338       H  0.83083298  0.51551806  0.81588040     0.06470
C3339       C  0.84674538  0.87164983  0.79881710     0.03510
C3340       C  0.84428084  0.89835456  0.79782899    -0.12640
C3341       C  0.82924802  0.90558621  0.81432881     0.01010
C3342       C  0.81347385  0.88270449  0.83035366    -0.11160
C3343       C  0.81751732  0.85668029  0.83249246     0.03500
C3344       C  0.83522239  0.85208106  0.81666184    -0.10580
H3345       H  0.85481791  0.91311765  0.78406213     0.09100
H3346       H  0.79721220  0.88438222  0.84087977     0.06630
H3347       H  0.84023910  0.83333477  0.81784871     0.06470
C3348       C  0.64562550  0.97029087  0.83295716     0.03510
C3349       C  0.65471199  0.98953116  0.81450977    -0.12640
C3350       C  0.63477240  0.98130385  0.79667263     0.01010
C3351       C  0.60732340  0.95258015  0.79640348    -0.11160
C3352       C  0.59712212  0.93377402  0.81479694     0.03500
C3353       C  0.61578773  0.94375700  0.83329921    -0.10580
H3354       H  0.67675422  0.51104238  0.81403193     0.09100
H3355       H  0.59345897  0.94572195  0.78187784     0.06630
H3356       H  0.60697367  0.93083050  0.84811378     0.06470
C3357       C  0.51556934  0.87094017  0.79880018     0.03510
C3358       C  0.54257867  0.90011336  0.80130969    -0.12640
C3359       C  0.56689598  0.90403016  0.81474050     0.01010
C3360       C  0.56230528  0.87927482  0.82789678    -0.11160
C3361       C  0.53273323  0.85287419  0.83001248     0.03500
C3362       C  0.00969917  0.84867931  0.81499923    -0.10580
H3363       H  0.54481417  0.92030825  0.79341209     0.09100
H3364       H  0.58172578  0.88088768  0.83675984     0.06630
H3365       H  0.98706987  0.82852694  0.81655772     0.06470
C3366       C  0.63932866  0.66243110  0.79587473     0.03510
C3367       C  0.61090541  0.66217358  0.79583789    -0.12640
C3368       C  0.60438664  0.67893756  0.81152243     0.01010
C3369       C  0.62713522  0.69543847  0.82726556    -0.11160
C3370       C  0.65483428  0.69446925  0.82806269     0.03500
C3371       C  0.66113694  0.67864909  0.81197789    -0.10580
H3372       H  0.59373739  0.64772890  0.78405136     0.09100
H3373       H  0.62357173  0.70898663  0.83933501     0.06630
H3374       H  0.68297597  0.67866824  0.81202845     0.06470
C3375       C  0.53503888  0.68655282  0.83122957     0.03510
C3376       C  0.01517798  0.67487097  0.81348111    -0.12640
C3377       C  0.02447958  0.66543908  0.79488070     0.01010
C3378       C  0.55460045  0.66960681  0.79384167    -0.11160
C3379       C  0.57378316  0.67835563  0.81210722     0.03500
C3380       C  0.56317657  0.68631860  0.83092540    -0.10580
H3381       H  0.99269242  0.67341072  0.81413975     0.09100
H3382       H  0.56260914  0.66544242  0.77866513     0.06630
H3383       H  0.57648752  0.69282045  0.84561995     0.06470
C3384       C  0.74434602  0.76032094  0.89697148    -0.02110
C3385       C  0.74189954  0.99411670  0.89678229    -0.02110
C3386       C  0.51159436  0.75888605  0.89594388    -0.02110
O3387       O  0.78560354  0.61836727  0.95693063    -0.81420
C3388       C  0.89270302  0.69952319  0.00128732     0.97940
O3389       O  0.87648997  0.67054988  0.99821074    -0.70530
O3390       O  0.82415198  0.61802319  0.99099547    -0.74120
Al3391     Al  0.85317270  0.65071502  0.97291559     1.48980
C3392       C  0.80192545  0.61470010  0.00276417     0.93190
O3393       O  0.78902301  0.68295377  0.99192969    -0.80350
O3394       O  0.82654944  0.71894466  0.95496311    -0.73900
Al3395     Al  0.79198507  0.65295346  0.97435537     1.90120
O3396       O  0.83730956  0.71835348  0.99853212    -0.72970
O3397       O  0.87746335  0.71562410  0.94655742    -0.72820
O3398       O  0.88869686  0.71825270  0.98997999    -0.78480
O3399       O  0.88673804  0.67835757  0.95503047    -0.76690
O3400       O  0.83358689  0.67267389  0.97312041    -1.12820
O3401       O  0.83224355  0.62813578  0.94757251    -0.72010
C3402       C  0.80303612  0.61221953  0.94553577     0.98700
C3403       C  0.80866899  0.70610208  0.00254124     0.95100
Al3404     Al  0.85551165  0.71414595  0.97246722     1.55560
O3405       O  0.79025181  0.63188626  0.00027029    -0.76640
C3406       C  0.89332151  0.70229509  0.94420779     0.99270
C3407       C  0.80152713  0.70054062  0.94540316     0.94150
O3408       O  0.78814853  0.67170283  0.94887604    -0.81960
C3409       C  0.95851931  0.75504678  0.90568286    -0.20920
C3410       C  0.97889936  0.74279329  0.90684491    -0.08970
C3411       C  0.96976784  0.71673190  0.92029601     0.29890
C3412       C  0.94141084  0.70311588  0.93132021    -0.20920
C3413       C  0.92134939  0.71538762  0.93005023    -0.08980
C3414       C  0.93019056  0.74151051  0.91696384     0.29900
F3415       F  0.91196583  0.75461986  0.91546718    -0.19500
H3416       H  0.96460322  0.77588534  0.89666850     0.18260
H3417       H  0.93571677  0.68334503  0.94155113     0.18270
F3418       F  0.98851651  0.70444150  0.92307193    -0.19490
C3419       C  0.75593528  0.56685439  0.92980659    -0.20920
C3420       C  0.78845788  0.58485164  0.93081117    -0.08970
C3421       C  0.80611256  0.57491277  0.91898507     0.29890
C3422       C  0.79146761  0.54688651  0.90740342    -0.20920
C3423       C  0.75868565  0.52715133  0.90768728    -0.08980
C3424       C  0.74127578  0.53878497  0.91852036     0.29900
F3425       F  0.70968852  0.52230474  0.91907363    -0.19500
H3426       H  0.74149133  0.57395485  0.93842805     0.18260
H3427       H  0.80654163  0.54097550  0.89864668     0.18270
F3428       F  0.83766455  0.59179255  0.91896916    -0.19490
C3429       C  0.74151938  0.71514010  0.91865146    -0.20920
C3430       C  0.76016999  0.74355908  0.90779023    -0.08970
C3431       C  0.79301465  0.75727795  0.90987071     0.29890
C3432       C  0.80594304  0.74222384  0.92112141    -0.20920
C3433       C  0.78712804  0.71356588  0.93110946    -0.08980
C3434       C  0.75465305  0.69995336  0.92966665     0.29900
F3435       F  0.73553036  0.67290479  0.94000198    -0.19500
H3436       H  0.71644416  0.70467888  0.91868841     0.18260
H3437       H  0.83101593  0.75369172  0.92266355     0.18270
F3438       F  0.81320933  0.78630009  0.90267163    -0.19490
C3439       C  0.55184456  0.73246146  0.85471035    -0.20920
C3440       C  0.52856015  0.70249658  0.84904519    -0.08970
C3441       C  0.99945696  0.68963064  0.85936133     0.29890
C3442       C  0.99385078  0.70679951  0.87494401    -0.20920
C3443       C  0.51722452  0.73725819  0.88065987    -0.08980
C3444       C  0.54636150  0.74969171  0.86996714     0.29900
F3445       F  0.56972163  0.77899139  0.87415668    -0.19500
H3446       H  0.57427386  0.74313223  0.84669257     0.18260
H3447       H  0.97069866  0.69644460  0.88166350     0.18270
F3448       F  0.97636647  0.66057698  0.85429962    -0.19490
C3449       C  0.68325258  0.73937652  0.85273827    -0.20920
C3450       C  0.67692338  0.70994569  0.84594629    -0.08970
C3451       C  0.69119326  0.69544463  0.85663384     0.29890
C3452       C  0.71222209  0.71072231  0.87333721    -0.20920
C3453       C  0.71872882  0.74044913  0.88034812    -0.08980
C3454       C  0.70336638  0.75424834  0.86972995     0.29900
F3455       F  0.70842491  0.78277528  0.87554066    -0.19500
H3456       H  0.67290115  0.75126921  0.84466087     0.18260
H3457       H  0.72403802  0.69941299  0.87995555     0.18270
F3458       F  0.68471355  0.66637218  0.85106912    -0.19490
C3459       C  0.00286772  0.79862045  0.84533346    -0.20920
C3460       C  0.52622905  0.82985158  0.84765853    -0.08970
C3461       C  0.54313145  0.83871534  0.86712580     0.29890
C3462       C  0.53897330  0.81655113  0.88249038    -0.20920
C3463       C  0.51541685  0.78516155  0.88036869    -0.08980
C3464       C  0.99666023  0.77705672  0.86163763     0.29900
F3465       F  0.97297535  0.74758344  0.85853585    -0.19500
H3466       H  0.98940793  0.79022253  0.83072700     0.18260
H3467       H  0.55526896  0.82472071  0.89558227     0.18270
F3468       F  0.56371401  0.86889591  0.87173238    -0.19490
C3469       C  0.68921779  0.50763597  0.85721080    -0.20920
C3470       C  0.66704591  0.97702764  0.85165672    -0.08970
C3471       C  0.66683153  0.95265919  0.86333966     0.29890
C3472       C  0.68819978  0.95879569  0.87973284    -0.20920
C3473       C  0.71232921  0.98924038  0.88438315    -0.08980
C3474       C  0.71204966  0.51380821  0.87269821     0.29900
F3475       F  0.73580462  0.54356557  0.87408265    -0.19500
H3476       H  0.69011335  0.52705687  0.84873175     0.18260
H3477       H  0.68668133  0.93878869  0.88748024     0.18270
F3478       F  0.64777891  0.92245069  0.85785578    -0.19490
C3479       C  0.79570085  0.80293809  0.84811193    -0.20920
C3480       C  0.80235939  0.83379676  0.85058940    -0.08970
C3481       C  0.79355267  0.84181445  0.87023626     0.29890
C3482       C  0.77535740  0.81895319  0.88534673    -0.20920
C3483       C  0.76796973  0.78778568  0.88259365    -0.08980
C3484       C  0.78028479  0.78086339  0.86409899     0.29900
F3485       F  0.77567343  0.75184447  0.86076160    -0.19500
H3486       H  0.80146596  0.79502788  0.83350861     0.18260
H3487       H  0.76661965  0.82622539  0.89870845     0.18270
F3488       F  0.80244302  0.87170995  0.87522493    -0.19490
C3489       C  0.80566918  0.97990981  0.87092939    -0.20920
C3490       C  0.79926431  0.97921350  0.84889047    -0.08970
C3491       C  0.77591462  0.98510752  0.84228973     0.29890
C3492       C  0.75881553  0.99104170  0.85732949    -0.20920
C3493       C  0.76391052  0.99111455  0.87985461    -0.08980
C3494       C  0.78856694  0.98613985  0.88625448     0.29900
F3495       F  0.79555603  0.98638726  0.90740465    -0.19500
H3496       H  0.82397930  0.97570018  0.87625776     0.18260
H3497       H  0.74116752  0.99488302  0.85054790     0.18270
F3498       F  0.76882662  0.98415100  0.82107711    -0.19490
C3499       C  0.88286814  0.52831375  0.74589526    -0.20920
C3500       C  0.90093135  0.55993870  0.75216375    -0.08970
C3501       C  0.89727844  0.56705297  0.77377401     0.29890
C3502       C  0.88060809  0.54366627  0.78871324    -0.20920
C3503       C  0.86469954  0.51233441  0.78265731    -0.08980
C3504       C  0.86526694  0.50490887  0.76083924     0.29900
F3505       F  0.84815142  0.97519555  0.75371648    -0.19500
H3506       H  0.88187126  0.52143704  0.72923555     0.18260
H3507       H  0.88026197  0.55040833  0.80527346     0.18270
F3508       F  0.90893808  0.59646072  0.78094498    -0.19490
C3509       C  0.97679838  0.60424564  0.75360424    -0.20920
C3510       C  0.95258407  0.61030378  0.74836607    -0.08970
C3511       C  0.95537660  0.63810602  0.75762429     0.29890
C3512       C  0.97984903  0.65696071  0.77143219    -0.20920
C3513       C  0.00203547  0.64888710  0.77726413    -0.08980
C3514       C  0.00055249  0.62261481  0.76776130     0.29900
F3515       F  0.52072491  0.61287205  0.77331746    -0.19500
H3516       H  0.97817411  0.58481400  0.74792897     0.18260
H3517       H  0.98040553  0.67719398  0.77848467     0.18270
F3518       F  0.93267314  0.64561348  0.75594958    -0.19490
C3519       C  0.92412330  0.63009740  0.71428348    -0.20920
C3520       C  0.90592857  0.60219121  0.72598687    -0.08970
C3521       C  0.87325508  0.59029640  0.72679800     0.29890
C3522       C  0.85995910  0.60538302  0.71594314    -0.20920
C3523       C  0.87841509  0.63279007  0.70440171    -0.08980
C3524       C  0.91074861  0.64546260  0.70406903     0.29900
F3525       F  0.92931043  0.67140232  0.69243620    -0.19500
H3526       H  0.94898409  0.63959442  0.71258601     0.18260
H3527       H  0.83487805  0.59504508  0.71603959     0.18270
F3528       F  0.85339973  0.56328841  0.73680155    -0.19490
C3529       C  0.62079523  0.53399939  0.76099744    -0.20920
C3530       C  0.64868303  0.54993296  0.74895812    -0.08970
C3531       C  0.67007706  0.53891437  0.75051271     0.29890
C3532       C  0.66592274  0.51688317  0.76625303    -0.20920
C3533       C  0.63957699  0.50393759  0.77960392    -0.08980
C3534       C  0.61653106  0.51189963  0.77628433     0.29900
F3535       F  0.59037966  0.49937797  0.78863310    -0.19500
H3536       H  0.60306920  0.54054213  0.75970344     0.18260
H3537       H  0.68300542  0.50952858  0.76779393     0.18270
F3538       F  0.69425257  0.54806738  0.73665020    -0.19490
C3539       C  0.64663213  0.64831067  0.75826363    -0.20920
C3540       C  0.64518776  0.64312312  0.78054191    -0.08970
C3541       C  0.65038984  0.61979538  0.78840758     0.29890
C3542       C  0.65484374  0.60064454  0.77424281    -0.20920
C3543       C  0.65281599  0.60302147  0.75160210    -0.08980
C3544       C  0.65155857  0.62923250  0.74394568     0.29900
F3545       F  0.65337258  0.63542626  0.72254006    -0.19500
H3546       H  0.64404267  0.66719832  0.75198323     0.18260
H3547       H  0.65970422  0.58378576  0.78145088     0.18270
F3548       F  0.65036066  0.61492397  0.80993341    -0.19490
C3549       C  0.74210665  0.62277373  0.72297797    -0.20920
C3550       C  0.74227413  0.62693541  0.70066395    -0.08970
C3551       C  0.71420580  0.61796493  0.69011235     0.29890
C3552       C  0.68620619  0.60329033  0.70136147    -0.20920
C3553       C  0.68499719  0.59646730  0.72360386    -0.08980
C3554       C  0.71388836  0.60883199  0.73450948     0.29900
F3555       F  0.71481276  0.60627704  0.75622023    -0.19500
H3556       H  0.76379665  0.63074082  0.73148965     0.18260
H3557       H  0.66560540  0.59780585  0.69226240     0.18270
F3558       F  0.71375923  0.62284807  0.66862200    -0.19490
C3559       C  0.97819885  0.88037519  0.74742961    -0.20920
C3560       C  0.94877605  0.85264515  0.74644014    -0.08970
C3561       C  0.94432836  0.82957894  0.76180895     0.29890
C3562       C  0.96589754  0.83553695  0.77813438    -0.20920
C3563       C  0.99370112  0.86420818  0.77996030    -0.08980
C3564       C  0.00055380  0.88531283  0.76278830     0.29900
F3565       F  0.52876558  0.91108816  0.76009272    -0.19500
H3566       H  0.98418478  0.90023976  0.73740740     0.18260
H3567       H  0.95979195  0.81682779  0.78930907     0.18270
F3568       F  0.91874525  0.80126851  0.76252395    -0.19490
C3569       C  0.91377698  0.87279395  0.77011609    -0.20920
C3570       C  0.90056122  0.85689673  0.75048966    -0.08970
C3571       C  0.86898628  0.84790919  0.74664329     0.29890
C3572       C  0.85130116  0.85231417  0.76249263    -0.20920
C3573       C  0.86470386  0.86622595  0.78222909    -0.08980
C3574       C  0.89606412  0.87676479  0.78580781     0.29900
F3575       F  0.90979551  0.89156489  0.80445147    -0.19500
H3576       H  0.93812713  0.88268735  0.77374786     0.18260
H3577       H  0.82719626  0.84513543  0.75930509     0.18270
F3578       F  0.85540941  0.83582595  0.72738771    -0.19490
C3579       C  0.88775458  0.78828338  0.68822361    -0.20920
C3580       C  0.87127780  0.76114302  0.70015573    -0.08970
C3581       C  0.86564985  0.76337461  0.72197887     0.29890
C3582       C  0.87989742  0.79265915  0.73206063    -0.20920
C3583       C  0.90104126  0.82031591  0.72093047    -0.08980
C3584       C  0.90051028  0.81730010  0.69798328     0.29900
F3585       F  0.90877153  0.84122979  0.68420655    -0.19500
H3586       H  0.88937979  0.78702282  0.67084623     0.18260
H3587       H  0.87371816  0.79359978  0.74865458     0.18270
F3588       F  0.84691723  0.73746537  0.73355867    -0.19490
C3589       C  0.85559433  0.92389919  0.36995882    -0.20920
C3590       C  0.85323516  0.93053442  0.39186761    -0.08970
C3591       C  0.88169529  0.95046862  0.40260154     0.29890
C3592       C  0.91000588  0.96634414  0.39109258    -0.20920
C3593       C  0.91108433  0.96091440  0.36900869    -0.08980
C3594       C  0.88369871  0.93894494  0.35875602     0.29900
F3595       F  0.88399132  0.93213196  0.33756482    -0.19500
H3596       H  0.83576792  0.90653902  0.36112345     0.18260
H3597       H  0.93116126  0.98218269  0.39953384     0.18270
F3598       F  0.88217675  0.95507611  0.42418785    -0.19490
C3599       C  0.57942424  0.61442055  0.36664033    -0.20920
C3600       C  0.54741141  0.59344258  0.36825657    -0.08970
C3601       C  0.52913154  0.60143522  0.38111695     0.29890
C3602       C  0.54259895  0.62985404  0.39208836    -0.20920
C3603       C  0.57487601  0.65141498  0.39059343    -0.08980
C3604       C  0.59290724  0.64320271  0.37721235     0.29900
F3605       F  0.62380468  0.66311005  0.37440988    -0.19500
H3606       H  0.59384417  0.60915258  0.35631243     0.18260
H3607       H  0.52705749  0.63507617  0.40101921     0.18270
F3608       F  0.49795891  0.58192829  0.38278371    -0.19490
C3609       C  0.54168415  0.92098607  0.39044282    -0.20920
C3610       C  0.57438614  0.93356147  0.39034343    -0.08970
C3611       C  0.59186035  0.95904941  0.37636425     0.29890
C3612       C  0.57771283  0.97289429  0.36497614    -0.20920
C3613       C  0.54553643  0.96149871  0.36652977    -0.08980
C3614       C  0.52763891  0.93517492  0.37935301     0.29900
F3615       F  0.49630387  0.92243721  0.38083152    -0.19500
H3616       H  0.52616004  0.89949787  0.39849090     0.18260
H3617       H  0.59211951  0.99244492  0.35462224     0.18270
F3618       F  0.62296473  0.97094911  0.37387624    -0.19490
C3619       C  0.64624027  0.67408221  0.44030860    -0.20920
C3620       C  0.66248134  0.70377699  0.44953120    -0.08970
C3621       C  0.65573690  0.72661204  0.44285483     0.29890
C3622       C  0.63313439  0.71974660  0.42723989    -0.20920
C3623       C  0.61698547  0.69016387  0.41719385    -0.08980
C3624       C  0.62350957  0.66700577  0.42463699     0.29900
F3625       F  0.60666153  0.63686819  0.41848319    -0.19500
H3626       H  0.65061076  0.65591582  0.44573129     0.18260
H3627       H  0.62781242  0.73771187  0.42303181     0.18270
F3628       F  0.66987920  0.75515171  0.45220284    -0.19490
C3629       C  0.82532972  0.89636474  0.44224121    -0.20920
C3630       C  0.82240925  0.89081706  0.41971363    -0.08970
C3631       C  0.82200532  0.86358678  0.41239152     0.29890
C3632       C  0.81737279  0.84010668  0.42704472    -0.20920
C3633       C  0.81591745  0.84455337  0.44927456    -0.08980
C3634       C  0.82153598  0.87347246  0.45674543     0.29900
F3635       F  0.82197265  0.87917620  0.47819694    -0.19500
H3636       H  0.82981641  0.91825799  0.44905423     0.18260
H3637       H  0.81452126  0.81834110  0.42105489     0.18270
F3638       F  0.82326409  0.85845072  0.39101949    -0.19490
C3639       C  0.54964702  0.89443469  0.43250953    -0.20920
C3640       C  0.56779444  0.89003238  0.41683881    -0.08970
C3641       C  0.56852638  0.86176267  0.41799747     0.29890
C3642       C  0.55224511  0.83992611  0.43406591    -0.20920
C3643       C  0.53351554  0.84420940  0.44912552    -0.08980
C3644       C  0.53130000  0.87135418  0.44732882     0.29900
F3645       F  0.01135775  0.87597484  0.45967358    -0.19500
H3646       H  0.54952953  0.91615740  0.43319926     0.18260
H3647       H  0.55582625  0.82023261  0.43514651     0.18270
F3648       F  0.58765424  0.85608624  0.40554800    -0.19490
C3649       C  0.54035810  0.71495267  0.42986669    -0.20920
C3650       C  0.53053476  0.69669129  0.44861317    -0.08970
C3651       C  0.53921660  0.67383219  0.45105411     0.29890
C3652       C  0.55569085  0.66878062  0.43480058    -0.20920
C3653       C  0.56695543  0.68802490  0.41638069    -0.08980
C3654       C  0.55986059  0.71233957  0.41485377     0.29900
F3655       F  0.57333251  0.73567555  0.40032749    -0.19500
H3656       H  0.53414113  0.73259421  0.42696482     0.18260
H3657       H  0.56151323  0.65072927  0.43728258     0.18270
F3658       F  0.53382967  0.65748040  0.46957432    -0.19490
C3659       C  0.78089387  0.94239145  0.44409704    -0.20920
C3660       C  0.80274745  0.97381958  0.44659149    -0.08970
C3661       C  0.82867924  0.98757259  0.43277349     0.29890
C3662       C  0.83358898  0.96947122  0.41759860    -0.20920
C3663       C  0.81372722  0.93690758  0.41684762    -0.08980
C3664       C  0.78599461  0.92419307  0.42939627     0.29900
F3665       F  0.76486371  0.89338918  0.42885582    -0.19500
H3666       H  0.76034513  0.93154594  0.45425089     0.18260
H3667       H  0.85333003  0.98117867  0.40692371     0.18270
F3668       F  0.84924662  0.51855474  0.43392010    -0.19490
C3669       C  0.62991597  0.92827230  0.43247740    -0.20920
C3670       C  0.61512079  0.94070134  0.41972432    -0.08970
C3671       C  0.62174251  0.97141424  0.42482196     0.29890
C3672       C  0.64358329  0.98886934  0.44077095    -0.20920
C3673       C  0.65835493  0.97606249  0.45260210    -0.08980
C3674       C  0.65062420  0.94531635  0.44874477     0.29900
F3675       F  0.66310460  0.93161441  0.46087877    -0.19500
H3676       H  0.62561200  0.90497069  0.42970592     0.18260
H3677       H  0.65017499  0.51314359  0.44312503     0.18270
F3678       F  0.60713447  0.98496429  0.41521715    -0.19490
C3679       C  0.60073035  0.53127730  0.68820287    -0.20920
C3680       C  0.57923768  0.54161015  0.68717206    -0.08970
C3681       C  0.57925756  0.56132837  0.70339879     0.29890
C3682       C  0.60146566  0.57173875  0.71980353    -0.20920
C3683       C  0.62562328  0.56447074  0.71966059    -0.08980
C3684       C  0.62356701  0.54240440  0.70417455     0.29900
F3685       F  0.64479595  0.53279575  0.70380952    -0.19500
H3686       H  0.60063439  0.51548660  0.67608459     0.18260
H3687       H  0.59931769  0.58549402  0.73243470     0.18270
F3688       F  0.55740081  0.57013436  0.70360379    -0.19490
C3689       C  0.94096478  0.56295696  0.67882191    -0.20920
C3690       C  0.95681308  0.54765015  0.68484329    -0.08970
C3691       C  0.95697165  0.54009493  0.70639183     0.29890
C3692       C  0.94334067  0.54992753  0.72188919    -0.20920
C3693       C  0.93189868  0.57026518  0.71685833    -0.08980
C3694       C  0.92798015  0.57354969  0.69436122     0.29900
F3695       F  0.91001831  0.58469796  0.68663825    -0.19500
H3696       H  0.93840024  0.56652815  0.66190241     0.18260
H3697       H  0.94194180  0.54151649  0.73814849     0.18270
F3698       F  0.96952328  0.52247298  0.71238450    -0.19490
C3699       C  0.92417839  0.90132594  0.71572209    -0.20920
C3700       C  0.93466758  0.87959784  0.71697844    -0.08970
C3701       C  0.95829516  0.88338972  0.70216327     0.29890
C3702       C  0.96962374  0.90671763  0.68659382    -0.20920
C3703       C  0.95793797  0.92711697  0.68493743    -0.08980
C3704       C  0.93536989  0.92446414  0.69989976     0.29900
F3705       F  0.92381788  0.94410249  0.69927099    -0.19500
H3706       H  0.90679413  0.90055002  0.72659987     0.18260
H3707       H  0.98710294  0.90817733  0.67539144     0.18270
F3708       F  0.96939582  0.86333544  0.70213205    -0.19490
C3709       C  0.70355253  0.59286934  0.59786084    -0.20920
C3710       C  0.70608865  0.61225871  0.58040294    -0.08970
C3711       C  0.73453152  0.64086028  0.57839704     0.29890
C3712       C  0.75676290  0.65112808  0.59479733    -0.20920
C3713       C  0.75258905  0.63262163  0.61289139    -0.08980
C3714       C  0.72613117  0.60289463  0.61394939     0.29900
F3715       F  0.72145112  0.58377481  0.63086974    -0.19500
H3716       H  0.68330948  0.56992659  0.59937738     0.18260
H3717       H  0.77778803  0.67346743  0.59307199     0.18270
F3718       F  0.74223415  0.65846375  0.56033629    -0.19490
C3719       C  0.67426624  0.63942170  0.51172503    -0.20920
C3720       C  0.68763160  0.67050402  0.51819549    -0.08970
C3721       C  0.69275802  0.67750664  0.54028302     0.29890
C3722       C  0.68726041  0.65408719  0.55519559    -0.20920
C3723       C  0.67889733  0.62381141  0.54819167    -0.08980
C3724       C  0.66902611  0.61625348  0.52646839     0.29900
F3725       F  0.65506867  0.58658450  0.51904915    -0.19500
H3726       H  0.66874255  0.63303625  0.49494744     0.18260
H3727       H  0.69191590  0.66031101  0.57202732     0.18270
F3728       F  0.70340042  0.70695721  0.54740753    -0.19490
C3729       C  0.71123574  0.58995070  0.53607841    -0.20920
C3730       C  0.68557089  0.57655677  0.55042541    -0.08970
C3731       C  0.66817764  0.54362104  0.55135417     0.29890
C3732       C  0.67256069  0.52574290  0.53561190    -0.20920
C3733       C  0.69588730  0.54010074  0.51990444    -0.08980
C3734       C  0.71610491  0.57219055  0.52093896     0.29900
F3735       F  0.73967156  0.58669866  0.50647130    -0.19500
H3736       H  0.72647849  0.61482453  0.53546894     0.18260
H3737       H  0.65801415  0.00066227  0.53584377     0.18270
F3738       F  0.64803380  0.52844519  0.56768471    -0.19490
C3739       C  0.61500521  0.58428743  0.60606048    -0.20920
C3740       C  0.58886046  0.55833664  0.59760768    -0.08970
C3741       C  0.59086904  0.54746213  0.57714162     0.29890
C3742       C  0.61924386  0.56175145  0.56580381    -0.20920
C3743       C  0.64694875  0.58510613  0.57549822    -0.08980
C3744       C  0.64350295  0.59782296  0.59519184     0.29900
F3745       F  0.66751090  0.62351492  0.60417458    -0.19500
H3746       H  0.61357832  0.59363396  0.62155718     0.18260
H3747       H  0.61969703  0.55342513  0.54977471     0.18270
F3748       F  0.56546837  0.52313659  0.56813389    -0.19490
C3749       C  0.87379381  0.58523139  0.59693968    -0.20920
C3750       C  0.89627741  0.60619168  0.58217562    -0.08970
C3751       C  0.90902692  0.63848646  0.58664227     0.29890
C3752       C  0.89684061  0.64858097  0.60303054    -0.20920
C3753       C  0.87220082  0.62742919  0.61592047    -0.08980
C3754       C  0.86104184  0.59552611  0.61303752     0.29900
F3755       F  0.83839731  0.57435395  0.62610322    -0.19500
H3756       H  0.86512194  0.56052317  0.59537794     0.18260
H3757       H  0.90681261  0.67333871  0.60562192     0.18270
F3758       F  0.93440622  0.66090096  0.57622252    -0.19490
C3759       C  0.95852381  0.62740028  0.54097815    -0.20920
C3760       C  0.92810980  0.61984995  0.54715948    -0.08970
C3761       C  0.91410599  0.63452312  0.53588390     0.29890
C3762       C  0.92957905  0.65516722  0.51914346    -0.20920
C3763       C  0.95954077  0.66222350  0.51305164    -0.08980
C3764       C  0.97410709  0.64847011  0.52430004     0.29900
F3765       F  0.50360943  0.65560117  0.51931193    -0.19500
H3766       H  0.97015787  0.61631811  0.54827045     0.18260
H3767       H  0.91783873  0.66539580  0.51071035     0.18270
F3768       F  0.88490951  0.62837813  0.54086536    -0.19490
C3769       C  0.85002161  0.56115884  0.55052881    -0.20920
C3770       C  0.88156054  0.56950690  0.54834901    -0.08970
C3771       C  0.88989304  0.55880840  0.52958226     0.29890
C3772       C  0.86882394  0.54437057  0.51284134    -0.20920
C3773       C  0.83785132  0.53754135  0.51468571    -0.08980
C3774       C  0.82833548  0.54424633  0.53452985     0.29900
F3775       F  0.79800899  0.53469587  0.53873137    -0.19500
H3776       H  0.84156327  0.56850888  0.56399764     0.18260
H3777       H  0.87749162  0.53959904  0.49816992     0.18270
F3778       F  0.91939632  0.56448436  0.52662813    -0.19490
C3779       C  0.96703728  0.58373611  0.59827085    -0.20920
C3780       C  0.95620581  0.55167866  0.59710452    -0.08970
C3781       C  0.93002432  0.53316555  0.58430805     0.29890
C3782       C  0.91484479  0.54636995  0.57340334    -0.20920
C3783       C  0.92561425  0.57869160  0.57434501    -0.08980
C3784       C  0.95194018  0.59699808  0.58735884     0.29900
F3785       F  0.96312026  0.62793601  0.58974066    -0.19500
H3786       H  0.98681807  0.59866469  0.60825748     0.18260
H3787       H  0.89399650  0.53058126  0.56474975     0.18270
F3788       F  0.91828813  0.50200709  0.58278630    -0.19490
C3789       C  0.90885006  0.77902064  0.61551949    -0.20920
C3790       C  0.87721969  0.75644769  0.61587692    -0.08970
C3791       C  0.85692545  0.75910686  0.60166027     0.29890
C3792       C  0.86841519  0.78245267  0.58615040    -0.20920
C3793       C  0.90075438  0.80351793  0.58389262    -0.08980
C3794       C  0.92035950  0.80304733  0.60027061     0.29900
F3795       F  0.95117570  0.82439040  0.60046172    -0.19500
H3796       H  0.92458583  0.77818599  0.62717611     0.18260
H3797       H  0.85139063  0.78364677  0.57608180     0.18270
F3798       F  0.82587580  0.73860357  0.60243620    -0.19490
C3799       C  0.85936749  0.83802046  0.52524913    -0.20920
C3800       C  0.84386008  0.80865894  0.51545237    -0.08970
C3801       C  0.85093714  0.78595027  0.52189832     0.29890
C3802       C  0.87301421  0.79256835  0.53788555    -0.20920
C3803       C  0.88837014  0.82177981  0.54847625    -0.08980
C3804       C  0.88163494  0.84487706  0.54123838     0.29900
F3805       F  0.89767971  0.87475933  0.54804564    -0.19500
H3806       H  0.85464807  0.85608679  0.52015419     0.18260
H3807       H  0.87844599  0.77466517  0.54206065     0.18270
F3808       F  0.83748890  0.75773138  0.51211179    -0.19490
C3809       C  0.96819556  0.79928837  0.53934481    -0.20920
C3810       C  0.97760777  0.81675785  0.52020473    -0.08970
C3811       C  0.96803471  0.83878991  0.51699021     0.29890
C3812       C  0.95006201  0.84299562  0.53242363    -0.20920
C3813       C  0.93838169  0.82380500  0.55084745    -0.08980
C3814       C  0.94719516  0.80091071  0.55352929     0.29900
F3815       F  0.93417389  0.77801450  0.56838943    -0.19500
H3816       H  0.97546267  0.78264700  0.54302750     0.18260
H3817       H  0.94351975  0.86038748  0.52928269     0.18270
F3818       F  0.97376025  0.85487776  0.49831497    -0.19490
C3819       C  0.96183517  0.88184802  0.57419114    -0.20920
C3820       C  0.92955810  0.86003720  0.57581532    -0.08970
C3821       C  0.91147947  0.86820557  0.58905938     0.29890
C3822       C  0.92479047  0.89715301  0.59923790    -0.20920
C3823       C  0.95669877  0.91880161  0.59711756    -0.08980
C3824       C  0.97507714  0.91081270  0.58437808     0.29900
F3825       F  0.00610985  0.93059894  0.58213547    -0.19500
H3826       H  0.97762714  0.87668660  0.56555945     0.18260
H3827       H  0.91001235  0.90226145  0.60929411     0.18270
F3828       F  0.88061158  0.84823862  0.59195162    -0.19490
C3829       C  0.64909471  0.90742307  0.36634108    -0.20920
C3830       C  0.62855118  0.88455675  0.35201248    -0.08970
C3831       C  0.59668833  0.87486730  0.35338634     0.29890
C3832       C  0.58567640  0.88666941  0.36941870    -0.20920
C3833       C  0.60580877  0.90834651  0.38480717    -0.08980
C3834       C  0.63823393  0.91969768  0.38224353     0.29900
F3835       F  0.66003072  0.94334055  0.39423705    -0.19500
H3836       H  0.67388418  0.91613966  0.36515894     0.18260
H3837       H  0.56089530  0.87811900  0.37025649     0.18270
F3838       F  0.57595340  0.85403621  0.33920365    -0.19490
C3839       C  0.59094965  0.73216917  0.35207043    -0.20920
C3840       C  0.62235444  0.75519755  0.35093125    -0.08970
C3841       C  0.64390221  0.75275079  0.36406149     0.29890
C3842       C  0.63398005  0.72902850  0.37915770    -0.20920
C3843       C  0.60201760  0.70758882  0.38233415    -0.08980
C3844       C  0.58095370  0.70793272  0.36707477     0.29900
F3845       F  0.55023179  0.68637295  0.36790977    -0.19500
H3846       H  0.57425002  0.73276997  0.34120503     0.18260
H3847       H  0.65185497  0.72796295  0.38830282     0.18270
F3848       F  0.67477124  0.77372323  0.36253515    -0.19490
C3849       C  0.74689826  0.85720111  0.37044646    -0.20920
C3850       C  0.74775051  0.87704541  0.35410675    -0.08970
C3851       C  0.77065134  0.90866003  0.35512805     0.29890
C3852       C  0.79272229  0.91962207  0.37153456    -0.20920
C3853       C  0.79373186  0.89958021  0.38723126    -0.08980
C3854       C  0.76891695  0.86821791  0.38708392     0.29900
F3855       F  0.76400620  0.84833215  0.40346876    -0.19500
H3856       H  0.72857384  0.83308999  0.37067553     0.18260
H3857       H  0.81014962  0.94408193  0.37156501     0.18270
F3858       F  0.77234912  0.92914601  0.34001307    -0.19490
C3859       C  0.54393333  0.93913074  0.28415225    -0.20920
C3860       C  0.54007052  0.96444170  0.27914054    -0.08970
C3861       C  0.54494544  0.97534174  0.25791537     0.29890
C3862       C  0.55480646  0.96181475  0.24222804    -0.20920
C3863       C  0.56259813  0.93885236  0.24761451    -0.08980
C3864       C  0.55461908  0.92615904  0.26869869     0.29900
F3865       F  0.55580293  0.90046125  0.27446177    -0.19500
H3866       H  0.53875572  0.92936399  0.30024192     0.18260
H3867       H  0.55756784  0.97034862  0.22591196     0.18270
F3868       F  0.53934880  0.99843808  0.25220719    -0.19490
C3869       C  0.61634197  0.92786615  0.25614824    -0.20920
C3870       C  0.59315785  0.91037226  0.24075334    -0.08970
C3871       C  0.58832088  0.88032899  0.23569063     0.29890
C3872       C  0.60284898  0.86730892  0.24776905    -0.20920
C3873       C  0.62398133  0.88428748  0.26417363    -0.08980
C3874       C  0.63128684  0.91517359  0.26774045     0.29900
F3875       F  0.65185442  0.93291359  0.28320033    -0.19500
H3876       H  0.62205969  0.95144498  0.25987855     0.18260
H3877       H  0.59783756  0.84393635  0.24407031     0.18270
F3878       F  0.57120988  0.86381766  0.21854142    -0.19490
C3879       C  0.54235600  0.60477127  0.24322812    -0.20920
C3880       C  0.56344988  0.63621719  0.24893279    -0.08970
C3881       C  0.57096496  0.64230457  0.27122531     0.29890
C3882       C  0.55745371  0.61848543  0.28648543    -0.20920
C3883       C  0.53571581  0.58808983  0.28054546    -0.08980
C3884       C  0.52819408  0.58127619  0.25877295     0.29900
F3885       F  0.00801275  0.55173118  0.25244597    -0.19500
H3886       H  0.53641539  0.59854732  0.22647514     0.18260
H3887       H  0.56414809  0.62385854  0.30323862     0.18270
F3888       F  0.59191499  0.67071708  0.27887282    -0.19490
C3889       C  0.55561361  0.67645904  0.19732902    -0.20920
C3890       C  0.54931758  0.65948294  0.21667481    -0.08970
C3891       C  0.51720236  0.64250233  0.22269514     0.29890
C3892       C  0.99375283  0.63724815  0.20785611    -0.20920
C3893       C  0.50129635  0.65035677  0.18717589    -0.08980
C3894       C  0.53267841  0.67114059  0.18250856     0.29900
F3895       F  0.54193685  0.68539990  0.16306389    -0.19500
H3896       H  0.57825685  0.69416448  0.19281708     0.18260
H3897       H  0.96963354  0.62305607  0.21265148     0.18270
F3898       F  0.00799567  0.63261460  0.24317650    -0.19490
C3899       C  0.57767604  0.70904247  0.24783782    -0.20920
C3900       C  0.59459722  0.69471265  0.24087495    -0.08970
C3901       C  0.62688303  0.71008104  0.24587980     0.29890
C3902       C  0.64129937  0.73890676  0.25638532    -0.20920
C3903       C  0.62404872  0.75271575  0.26317969    -0.08980
C3904       C  0.59199687  0.73746240  0.25860418     0.29900
F3905       F  0.57389475  0.74925703  0.26527428    -0.19500
H3906       H  0.55278792  0.69782125  0.24563290     0.18260
H3907       H  0.66574026  0.74951594  0.26036078     0.18270
F3908       F  0.64434030  0.69653396  0.24208009    -0.19490
C3909       C  0.89133175  0.92834932  0.25114295    -0.20920
C3910       C  0.86972886  0.93904345  0.24944926    -0.08970
C3911       C  0.86928157  0.95774522  0.26656337     0.29890
C3912       C  0.89200559  0.96850958  0.28268297    -0.20920
C3913       C  0.91505724  0.95996111  0.28282389    -0.08980
C3914       C  0.91393821  0.93909365  0.26713985     0.29900
F3915       F  0.93495780  0.92919655  0.26694532    -0.19500
H3916       H  0.89121894  0.91133444  0.24027020     0.18260
H3917       H  0.89158702  0.48371387  0.29506045     0.18270
F3918       F  0.84768190  0.96686916  0.26716450    -0.19490
C3919       C  0.87576716  0.00863029  0.20224390    -0.20920
C3920       C  0.85980874  0.99886782  0.18254632    -0.08970
C3921       C  0.83690337  0.96743761  0.18030869     0.29890
C3922       C  0.83057356  0.94680107  0.19718983    -0.20920
C3923       C  0.84892481  0.95551432  0.21610787    -0.08980
C3924       C  0.87161944  0.98737810  0.21838987     0.29900
F3925       F  0.89152733  0.99859129  0.23516553    -0.19500
H3926       H  0.89274015  0.53280655  0.20497180     0.18260
H3927       H  0.81282496  0.92278705  0.19464670     0.18270
F3928       F  0.82212761  0.95568682  0.16133425    -0.19490
C3929       C  0.79122100  0.92216741  0.23981267    -0.20920
C3930       C  0.81287768  0.91156034  0.24165046    -0.08970
C3931       C  0.80485919  0.88609189  0.25550045     0.29890
C3932       C  0.77663857  0.87194649  0.26667372    -0.20920
C3933       C  0.75554531  0.88288623  0.26485706    -0.08980
C3934       C  0.76296670  0.90792841  0.25103599     0.29900
F3935       F  0.74331674  0.91927352  0.24868191    -0.19500
H3936       H  0.79609487  0.94226249  0.23031649     0.18260
H3937       H  0.77181940  0.85287930  0.27738750     0.18270
F3938       F  0.82466238  0.87507355  0.25854478    -0.19490
C3939       C  0.88334257  0.90374724  0.18644144    -0.20920
C3940       C  0.86030750  0.87331688  0.18180031    -0.08970
C3941       C  0.83223538  0.85983513  0.19343461     0.29890
C3942       C  0.82732324  0.87680511  0.20942400    -0.20920
C3943       C  0.85066172  0.90746042  0.21458863    -0.08980
C3944       C  0.87872912  0.92064156  0.20242301     0.29900
F3945       F  0.90185910  0.95027941  0.20594971    -0.19500
H3946       H  0.90499232  0.91468528  0.17744607     0.18260
H3947       H  0.80481008  0.86580706  0.21714812     0.18270
F3948       F  0.80963671  0.83009616  0.18951322    -0.19490
C3949       C  0.52495478  0.87555165  0.22195421    -0.20920
C3950       C  0.54817511  0.90559611  0.21537290    -0.08970
C3951       C  0.54279274  0.91674318  0.19566069     0.29890
C3952       C  0.51999412  0.89667999  0.18143560    -0.20920
C3953       C  0.50018574  0.86566523  0.18683465    -0.08980
C3954       C  0.50167476  0.85539634  0.20758969     0.29900
F3955       F  0.48100396  0.82596050  0.21381275    -0.19500
H3956       H  0.52591051  0.86706910  0.23780910     0.18260
H3957       H  0.51743691  0.90558365  0.16612173     0.18270
F3958       F  0.55871411  0.94719430  0.19003781    -0.19490
C3959       C  0.61685016  0.98458654  0.22138976    -0.20920
C3960       C  0.60278948  0.95256937  0.21650050    -0.08970
C3961       C  0.61243431  0.94436087  0.19735076     0.29890
C3962       C  0.62799947  0.96644561  0.18143740    -0.20920
C3963       C  0.63732581  0.99792166  0.18483668    -0.08980
C3964       C  0.63366378  0.50708009  0.20564738     0.29900
F3965       F  0.64593039  0.53754229  0.21081047    -0.19500
H3966       H  0.61412377  0.49246317  0.23706853     0.18260
H3967       H  0.63077620  0.95812801  0.16592922     0.18270
F3968       F  0.60289587  0.91424045  0.19261983    -0.19490
C3969       C  0.63150746  0.67013508  0.18277142    -0.20920
C3970       C  0.63208351  0.64212766  0.18301545    -0.08970
C3971       C  0.61989310  0.62344601  0.20164655     0.29890
C3972       C  0.60332405  0.63001232  0.21715362    -0.20920
C3973       C  0.59933784  0.65624831  0.21546528    -0.08980
C3974       C  0.61803192  0.67817416  0.19947984     0.29900
F3975       F  0.62592301  0.70853521  0.20066934    -0.19500
H3976       H  0.64194917  0.68683229  0.16994235     0.18260
H3977       H  0.59461562  0.61448096  0.23073533     0.18270
F3978       F  0.62483023  0.59946420  0.20572002    -0.19490
C3979       C  0.71808454  0.91504300  0.92610829    -0.20920
C3980       C  0.71033635  0.92027834  0.94677786    -0.08970
C3981       C  0.71381033  0.94935283  0.95155911     0.29890
C3982       C  0.72486039  0.97278105  0.93604962    -0.20920
C3983       C  0.73186688  0.96809591  0.91464800    -0.08980
C3984       C  0.72799508  0.93808512  0.91013618     0.29900
F3985       F  0.73206433  0.92998576  0.88998478    -0.19500
H3986       H  0.71513458  0.89251775  0.92200724     0.18260
H3987       H  0.72748926  0.99437729  0.94156856     0.18270
F3988       F  0.70690335  0.95543526  0.97155415    -0.19490
C3989       C  0.53740177  0.79437620  0.92886470    -0.20920
C3990       C  0.53551093  0.77087225  0.91491804    -0.08970
C3991       C  0.55487362  0.75820346  0.91996773     0.29890
C3992       C  0.57799252  0.77191698  0.93555358    -0.20920
C3993       C  0.58220361  0.79782209  0.94725736    -0.08980
C3994       C  0.56118471  0.80856216  0.94421738     0.29900
F3995       F  0.56311390  0.83217309  0.95641975    -0.19500
H3996       H  0.52139972  0.80302984  0.92694894     0.18260
H3997       H  0.59272131  0.76199893  0.93856308     0.18270
F3998       F  0.55100215  0.73163299  0.91089960    -0.19490
C3999       C  0.68586559  0.76676921  0.93598971    -0.20920
C4000       C  0.70596154  0.79183645  0.94897637    -0.08970
C4001       C  0.73826886  0.80370625  0.94685048     0.29890
C4002       C  0.74990431  0.79216690  0.93096872    -0.20920
C4003       C  0.73003952  0.76978352  0.91592795    -0.08980
C4004       C  0.69746438  0.75522287  0.92014785     0.29900
F4005       F  0.67638062  0.72900315  0.90982558    -0.19500
H4006       H  0.66090448  0.75581321  0.93813714     0.18260
H4007       H  0.77484685  0.80194998  0.92970112     0.18270
F4008       F  0.75884023  0.82668418  0.95994421    -0.19490
C4009       C  0.77521280  0.59269357  0.03786610    -0.20920
C4010       C  0.78926001  0.58985719  0.01913338    -0.08970
C4011       C  0.79183869  0.56330787  0.01632572     0.29890
C4012       C  0.78063337  0.54012525  0.03194273    -0.20920
C4013       C  0.76655839  0.54217184  0.05130477    -0.08980
C4014       C  0.76475439  0.56992874  0.05394196     0.29900
F4015       F  0.75625425  0.57742042  0.07282669    -0.19500
H4016       H  0.77378622  0.61348791  0.04063300     0.18260
H4017       H  0.78363598  0.52088824  0.02813529     0.18270
F4018       F  0.80501975  0.55938445  0.99823457    -0.19490
C4019       C  0.78683629  0.49706583  0.09217875    -0.20920
C4020       C  0.78620199  0.52222146  0.08190431    -0.08970
C4021       C  0.80950342  0.55261769  0.08821328     0.29890
C4022       C  0.83135487  0.55715378  0.10392214    -0.20920
C4023       C  0.83175815  0.53202542  0.11373817    -0.08980
C4024       C  0.80975714  0.50181059  0.10712199     0.29900
F4025       F  0.80994037  0.97660908  0.11530664    -0.19500
H4026       H  0.76871583  0.97333039  0.08949193     0.18260
H4027       H  0.84727901  0.58074610  0.10899888     0.18270
F4028       F  0.81040391  0.57853692  0.08069244    -0.19490
C4029       C  0.68887641  0.52517085  0.09388088    -0.20920
C4030       C  0.69596157  0.52833213  0.11588475    -0.08970
C4031       C  0.72175494  0.52661067  0.12293932     0.29890
C4032       C  0.73997564  0.52153802  0.10838272    -0.20920
C4033       C  0.73407740  0.51911496  0.08590494    -0.08980
C4034       C  0.70752911  0.52058716  0.07904147     0.29900
F4035       F  0.70012498  0.51843061  0.05782163    -0.19500
H4036       H  0.66886941  0.52627642  0.08817412     0.18260
H4037       H  0.75905218  0.52016264  0.11538544     0.18270
F4038       F  0.73008286  0.53078053  0.14403787    -0.19490
C4039       C  0.70722971  0.96232530  0.05985528    -0.20920
C4040       C  0.73992636  0.98303111  0.05867845    -0.08970
C4041       C  0.75723141  0.97130957  0.04773876     0.29890
C4042       C  0.74247813  0.94348842  0.03620235    -0.20920
C4043       C  0.70996800  0.92532637  0.03547437    -0.08980
C4044       C  0.69248092  0.93449255  0.04810567     0.29900
F4045       F  0.66100700  0.91679916  0.04903435    -0.19500
H4046       H  0.69210035  0.96685807  0.06969206     0.18260
H4047       H  0.75688853  0.93644490  0.02747232     0.18270
F4048       F  0.78881565  0.98628532  0.04833798    -0.19490
C4049       C  0.94657772  0.75156807  0.04502225    -0.20920
C4050       C  0.96303651  0.73628891  0.05077382    -0.08970
C4051       C  0.95809772  0.71046340  0.03803581     0.29890
C4052       C  0.93464648  0.69805982  0.02244882    -0.20920
C4053       C  0.91699183  0.71223476  0.01805264    -0.08980
C4054       C  0.92381189  0.73967137  0.02905162     0.29900
F4055       F  0.90793097  0.75471076  0.02475577    -0.19500
H4056       H  0.95099654  0.77279596  0.05293936     0.18260
H4057       H  0.93062292  0.67760487  0.01353298     0.18270
F4058       F  0.97502838  0.69626779  0.04129414    -0.19490
C4059       C  0.50677181  0.79745441  0.09374636    -0.20920
C4060       C  0.98184256  0.76953477  0.08544404    -0.08970
C4061       C  0.95196782  0.75900155  0.09462976     0.29890
C4062       C  0.94734747  0.77579312  0.11071255    -0.20920
C4063       C  0.97199827  0.80367044  0.11852246    -0.08980
C4064       C  0.50189234  0.81449703  0.10983291     0.29900
F4065       F  0.52641247  0.84161992  0.11672281    -0.19500
H4066       H  0.53040109  0.80592753  0.08839595     0.18260
H4067       H  0.92418087  0.76646986  0.11741717     0.18270
F4068       F  0.92678973  0.73205872  0.08825874    -0.19490
C4069       C  0.95363252  0.69335359  0.08628949    -0.20920
C4070       C  0.98245608  0.72130413  0.08471668    -0.08970
C4071       C  0.50520801  0.72664516  0.10043412     0.29890
C4072       C  0.50017466  0.70403725  0.11565900    -0.20920
C4073       C  0.97130852  0.67652066  0.11721029    -0.08980
C4074       C  0.94781313  0.67181987  0.10251961     0.29900
F4075       F  0.91840843  0.64745734  0.10452168    -0.19500
H4076       H  0.93436384  0.68868863  0.07592307     0.18260
H4077       H  0.51895573  0.70861099  0.12653966     0.18270
F4078       F  0.53237454  0.75408519  0.10138880    -0.19490
C4079       C  0.53737096  0.74978227  0.05605926    -0.20920
C4080       C  0.51908585  0.76422686  0.05814472    -0.08970
C4081       C  0.52955745  0.79266580  0.04715379     0.29890
C4082       C  0.55796762  0.80692923  0.03613164    -0.20920
C4083       C  0.57644495  0.79287472  0.03478568    -0.08980
C4084       C  0.56569553  0.76396344  0.04486854     0.29900
F4085       F  0.58189158  0.74867607  0.04333655    -0.19500
H4086       H  0.52956840  0.72689489  0.06256094     0.18260
H4087       H  0.56500834  0.82874124  0.02802761     0.18270
F4088       F  0.51221804  0.80681388  0.04693165    -0.19490
C4089       C  0.79322748  0.73291940  0.05603773    -0.20920
C4090       C  0.76924835  0.73960841  0.05086919    -0.08970
C4091       C  0.76238172  0.73865253  0.02840512     0.29890
C4092       C  0.77530117  0.72756915  0.01321403    -0.20920
C4093       C  0.79729129  0.71938947  0.01905047    -0.08980
C4094       C  0.80707187  0.72312650  0.04046646     0.29900
F4095       F  0.82909128  0.71612916  0.04651879    -0.19500
H4096       H  0.80122503  0.73492380  0.07247457     0.18260
H4097       H  0.76848663  0.72599120  0.99647531     0.18270
F4098       F  0.74425527  0.74910067  0.02006312    -0.19490
C4099       C  0.83259322  0.81011485  0.09476542    -0.20920
C4100       C  0.82581686  0.80576412  0.11685919    -0.08970
C4101       C  0.79535469  0.78531842  0.12348912     0.29890
C4102       C  0.77235002  0.76855150  0.10843174    -0.20920
C4103       C  0.77868403  0.77091479  0.08597907    -0.08980
C4104       C  0.80929457  0.79354169  0.07945835     0.29900
F4105       F  0.81684873  0.79970014  0.05829186    -0.19500
H4106       H  0.85588521  0.82669750  0.08936582     0.18260
H4107       H  0.74968997  0.75345094  0.11507860     0.18270
F4108       F  0.78784590  0.78081128  0.14476159    -0.19490
C4109       C  0.73567746  0.69481832  0.08704325    -0.20920
C4110       C  0.72921103  0.71891843  0.08235934    -0.08970
C4111       C  0.70353888  0.71771605  0.09378960     0.29890
C4112       C  0.68592569  0.69390974  0.10844784    -0.20920
C4113       C  0.69385541  0.67130493  0.11355112    -0.08980
C4114       C  0.71906426  0.67210745  0.10258681     0.29900
F4115       F  0.72926659  0.65220316  0.10777012    -0.19500
H4116       H  0.75450937  0.69349636  0.07968185     0.18260
H4117       H  0.66667787  0.69408221  0.11660584     0.18270
F4118       F  0.69730786  0.74134457  0.09300246    -0.19490
C4119       C  0.75015701  0.79821570  0.05928314    -0.20920
C4120       C  0.73648074  0.76540550  0.05960292    -0.08970
C4121       C  0.70707414  0.74790628  0.04945054     0.29890
C4122       C  0.69328734  0.76253864  0.03873050    -0.20920
C4123       C  0.70820155  0.79505555  0.03716064    -0.08980
C4124       C  0.73647191  0.81280885  0.04808827     0.29900
F4125       F  0.75166084  0.84432395  0.04731270    -0.19500
H4126       H  0.77214372  0.81318939  0.06694149     0.18260
H4127       H  0.67149283  0.74802244  0.03051696     0.18270
F4128       F  0.69282317  0.71644815  0.04810686    -0.19490
loop_ 
_geom_bond_atom_site_label_1 
_geom_bond_atom_site_label_2 
_geom_bond_distance 
_geom_bond_site_symmetry_2 
_ccdc_geom_bond_type 
C1          C994   1.586       .  S
C1         C1007   1.570       .  S
C1         C1014   1.581       .  S
C1         C1024   1.565       .  S
C2          C954   1.556       .  S
C2          C964   1.558       .  S
C2          C974   1.552       .  S
C2         C3048   1.556       .  S
C3          C917   1.580       .  S
C3          C924   1.565       .  S
C3          C937   1.566       .  S
C3         C1976   1.585   1_545  S
O4           C19   1.262       .  A
O4          Al12   1.905   1_554  S
C5           O15   1.263       .  A
C5            O6   1.264       .  A
C5          C884   1.480       .  S
O6           Al8   1.915       .  S
O7            C9   1.263       .  A
O7           Al8   1.913       .  S
Al8          O16   1.915   1_556  S
Al8          O18   1.903   1_556  S
Al8          O17   1.795       .  S
C9           O22   1.260       .  A
C9          C897   1.478       .  S
O10          C20   1.261       .  A
O10         Al12   1.907       .  S
O11          C24   1.266       .  A
O11         Al21   1.917   1_554  S
Al12         O25   1.901   1_556  S
Al12         O22   1.895       .  S
Al12         O17   1.786       .  S
O13          C20   1.256       .  A
O13         Al21   1.895       .  S
O14          C23   1.260       .  A
O14         Al21   1.898   1_554  S
O15         Al21   1.915       .  S
O16          C23   1.263       .  A
O17         Al21   1.793       .  S
O18          C19   1.261       .  A
C19         C987   1.488       .  S
C20         C904   1.484       .  S
C23         C947   1.488       .  S
C24          O25   1.263       .  A
C24        C1027   1.490       .  S
C26         C874   1.514       .  S
C26          C27   1.413       .  A
C26          C31   1.413       .  A
C27          C28   1.403       .  A
C27          H32   1.078       .  S
C28        C1017   1.497       .  S
C28          C29   1.400       .  A
C29          C30   1.413       .  A
C29          H33   1.073       .  S
C30          C37   1.518       .  S
C30          C31   1.413       .  A
C31          H34   1.072       .  S
C35         C934   1.475       .  S
C35          C36   1.397       .  A
C35        C1072   1.391       .  A
C36          C37   1.416       .  A
C36          H41   1.075       .  S
C37          C38   1.423       .  A
C38          C39   1.411       .  A
C38          H42   1.075       .  S
C39        C1899   1.494   1_545  S
C39        C1072   1.396       .  A
C40        C1067   1.391       .  A
C40        C1071   1.396       .  A
C40          H43   1.082       .  S
C44         C967   1.487       .  S
C44          C49   1.407       .  A
C44        C2109   1.403       .  A
C45        C2108   1.403       .  A
C45        C2110   1.400       .  A
C45          H50   1.083   1_655  S
C46        C2921   1.474       .  S
C46          C47   1.398       .  A
C46        C2109   1.400       .  A
C47          C48   1.416       .  A
C47          H51   1.077       .  S
C48          C55   1.512       .  S
C48          C49   1.410       .  A
C49          H52   1.078       .  S
C53        C1004   1.478       .  S
C53          C54   1.405       .  A
C53          C58   1.397       .  A
C54          C55   1.419       .  A
C54          H59   1.079       .  S
C55          C56   1.411       .  A
C56          C57   1.399       .  A
C56          H60   1.076       .  S
C57         C844   1.474       .  S
C57          C58   1.393       .  A
C58          H61   1.084       .  S
C62         C814   1.563       .  S
C62         C827   1.560       .  S
C62         C834   1.557       .  S
C62         C847   1.557       .  S
C63         C784   1.575       .  S
C63         C794   1.584       .  S
C63         C804   1.555       .  S
C63         C877   1.582       .  S
C64         C767   1.559       .  S
C64         C774   1.561       .  S
C64         C854   1.560       .  S
C64         C864   1.554       .  S
O65          C80   1.260       .  A
O65         Al73   1.891       .  S
C66          O76   1.261       .  A
C66          O67   1.263       .  A
C66         C754   1.487       .  S
O67         Al69   1.912       .  S
O68          C70   1.255       .  A
O68         Al69   1.880       .  S
Al69         O77   1.897       .  S
Al69         O79   1.913       .  S
Al69         O78   1.789       .  S
C70          O83   1.262       .  A
C70         C744   1.469       .  S
O71          C81   1.262       .  A
O71         Al73   1.907       .  S
O72          C85   1.260       .  A
O72         Al82   1.903       .  S
Al73         O86   1.915       .  S
Al73         O83   1.914       .  S
Al73         O78   1.791       .  S
O74          C81   1.262       .  A
O74         Al82   1.898       .  S
O75          C84   1.263       .  A
O75         Al82   1.908       .  S
O76         Al82   1.908       .  S
O77          C84   1.260       .  A
O78         Al82   1.789       .  S
O79          C80   1.266       .  A
C80         C807   1.484       .  S
C81         C734   1.482       .  S
C84         C837   1.483       .  S
C85          O86   1.262       .  A
C85         C777   1.487       .  S
C87         C977   1.491       .  S
C87          C88   1.401       .  A
C87          C92   1.401       .  A
C88          C89   1.402       .  A
C88        H2157   1.082       .  S
C89        C2861   1.491       .  S
C89          C90   1.406       .  A
C90          C91   1.416       .  A
C90          H94   1.077       .  S
C91         C100   1.507       .  S
C91          C92   1.408       .  A
C92          H95   1.077       .  S
H93        C2152   1.082       .  S
C96        C1856   1.493   1_545  S
C96          C97   1.404       .  A
C96         C101   1.407       .  A
C97          C98   1.400       .  A
C97        H1134   1.080       .  S
C98         C927   1.492       .  S
C98          C99   1.403       .  A
C99         C100   1.413       .  A
C99         H103   1.075       .  S
C100        C101   1.406       .  A
C101        H104   1.077       .  S
H102       C1129   1.080       .  S
C105        C697   1.561       .  S
C105        C707   1.563       .  S
C105        C717   1.559       .  S
C105        C724   1.557       .  S
C106        C654   1.567       .  S
C106        C664   1.553       .  S
C106        C674   1.563       .  S
C106        C687   1.559       .  S
C107        C614   1.560       .  S
C107        C627   1.558       .  S
C107        C634   1.558       .  S
C107        C647   1.561       .  S
O108        C123   1.270       .  A
O108      Al2180   1.928       .  S
C109        O119   1.268       .  A
C109        O110   1.264       .  A
C109        C607   1.484       .  S
O110       Al112   1.897       .  S
O111        C113   1.254       .  A
O111      Al1144   1.901   1_545  S
Al112       O120   1.899       .  S
Al112      O1143   1.901       .  S
Al112      O1154   1.903       .  S
Al112      O1153   1.792       .  S
C113        O126   1.255       .  A
C113        C594   1.459       .  S
O114        C124   1.259       .  A
O114       Al116   1.902       .  S
O115        C128   1.263       .  A
O115      Al1157   1.916   1_545  S
Al116       O129   1.901       .  S
Al116      O2172   1.928   1_455  S
Al116      O2190   1.898   1_455  S
Al116      O2185   1.785       .  S
O117        C124   1.257       .  A
O117      Al1157   1.894   1_545  S
O118        C127   1.259       .  A
O118      Al2189   1.906       .  S
O119      Al2189   1.922       .  S
O120        C127   1.257       .  A
O121      Al1144   1.792   1_545  S
O121      Al2180   1.785       .  S
O121      Al3221   1.789   1_545  S
O122        C123   1.267       .  A
O122      Al1144   1.903   1_545  S
C123        C684   1.489       .  S
C124        C584   1.474       .  S
Al125      O1147   1.916       .  S
Al125      O1149   1.894       .  S
Al125      O2182   1.906   1_455  S
Al125      O2183   1.922   1_455  S
Al125      O3217   1.789       .  S
O126      Al2180   1.898       .  S
C127        C727   1.485       .  S
C128        O129   1.261       .  A
C128        C644   1.475       .  S
C130        C637   1.476       .  S
C130        C135   1.402       .  A
C130       C1163   1.401       .  A
C131        C132   1.400       .  A
C131       C1162   1.400       .  A
C131        H136   1.084       .  S
C132        C577   1.476       .  S
C132        C133   1.403       .  A
C133       C1166   1.410       .  A
C133        H137   1.078       .  S
C134        C143   1.510       .  S
C134        C135   1.413       .  A
C134       C1165   1.410   1_545  A
C135        H138   1.079       .  S
C139       C1596   1.478       .  S
C139        C140   1.400   1_565  A
C139        C144   1.400       .  A
C140        C141   1.408       .  A
C140        H145   1.081       .  S
C141        C677   1.501       .  S
C141        C142   1.407       .  A
C142        C143   1.410       .  A
C142        H146   1.076       .  S
C143        C144   1.411   1_545  A
C144       H1179   1.077       .  S
H147       C1176   1.077       .  S
C148        C554   1.500       .  S
C148        C153   1.413       .  A
C148       C2213   1.405   1_455  A
C149        C150   1.397       .  A
C149       C2212   1.405       .  A
C149        H154   1.079       .  S
C150        C667   1.481       .  S
C150        C151   1.399       .  A
C151        C152   1.410       .  A
C151        H155   1.076       .  S
C152       C2223   1.507       .  S
C152       C2217   1.409       .  A
C153       C2216   1.409   1_455  A
C153        H156   1.079       .  S
C157        C714   1.499       .  S
C157        C158   1.404       .  A
C157       C2226   1.401       .  A
C158       C2223   1.405       .  A
C158        H163   1.069       .  S
C159       C2216   1.507       .  S
C159        C160   1.411   1_655  A
C159       C2222   1.405       .  A
C160        C161   1.412       .  A
C160        H164   1.079       .  S
C161        C547   1.502       .  S
C161        C162   1.406       .  A
C162       C2221   1.401   1_455  A
C162        H165   1.078       .  S
C166        C704   1.482       .  S
C166        C167   1.405       .  A
C166        C171   1.396       .  A
C167        C168   1.418       .  A
C167        H172   1.075       .  S
C168        C177   1.523       .  S
C168        C169   1.422       .  A
C169        C170   1.405       .  A
C169        H173   1.076       .  S
C170        C537   1.479       .  S
C170        C171   1.394       .  A
C171        H174   1.084       .  S
C175        C624   1.487       .  S
C175        C176   1.408       .  A
C175        C180   1.396       .  A
C176        C177   1.423       .  A
C176        H181   1.075       .  S
C177        C178   1.417       .  A
C178        C179   1.403       .  A
C178        H182   1.076       .  S
C179        C524   1.479       .  S
C179        C180   1.394       .  A
C180        H183   1.084       .  S
C184        C514   1.567       .  S
C184        C544   1.565       .  S
C184        C574   1.563       .  S
C184        C737   1.556       .  S
C185        C507   1.558       .  S
C185        C527   1.562       .  S
C185        C557   1.561       .  S
C185        C747   1.557       .  S
C186        C494   1.570       .  S
C186        C534   1.559       .  S
C186        C567   1.560       .  S
C186        C757   1.567       .  S
O187       C1234   1.265       .  A
O187       Al195   1.920   1_565  S
C188        O189   1.263       .  A
C188       O1230   1.263       .  A
C188        C817   1.482       .  S
O189       Al191   1.896       .  S
O190        C192   1.259       .  A
O190      Al2255   1.905   1_455  S
Al191       O199   1.899       .  S
Al191      O2254   1.905       .  S
Al191      O2265   1.904       .  S
Al191      O3296   1.786       .  S
C192       O1237   1.262       .  A
C192        C764   1.473       .  S
O193        C203   1.257       .  A
O193       Al195   1.899       .  S
O194        C207   1.264       .  A
O194      Al2268   1.911   1_455  S
Al195       O208   1.909       .  S
Al195       O205   1.915       .  S
Al195       O200   1.789   1_455  S
O196        C203   1.262   1_655  A
O196      Al2268   1.924       .  S
O197        C206   1.264       .  A
O197      Al1236   1.932       .  S
O198       C1220   1.263       .  A
O198       Al204   1.915   1_565  S
O199        C206   1.259       .  A
O200      Al3287   1.786   1_545  S
O200      Al2268   1.787       .  S
O201        C202   1.265       .  A
O201      Al2255   1.904   1_455  S
C202       O1219   1.265       .  A
C202        C517   1.488       .  S
C203        C787   1.475       .  S
Al204      O2258   1.911       .  S
Al204      O2260   1.924       .  S
Al204      O1229   1.932       .  S
Al204      O2264   1.787       .  S
O205       C1224   1.262   1_545  A
C206        C497   1.482       .  S
C207        O208   1.265       .  A
C207        C504   1.481       .  S
C209        C464   1.586       .  S
C209        C474   1.562       .  S
C209        C487   1.585       .  S
C209        C604   1.566       .  S
C210        C434   1.558       .  S
C210        C447   1.564       .  S
C210        C457   1.558       .  S
C210        C587   1.563       .  S
C211        C404   1.564       .  S
C211        C414   1.586       .  S
C211        C424   1.555       .  S
C211        C597   1.584       .  S
O212        C227   1.259       .  A
O212       Al220   1.915       .  S
C213        O223   1.259       .  A
C213        O214   1.257       .  A
C213        C694   1.469       .  S
O214       Al216   1.902       .  S
O215        C217   1.263       .  A
O215       Al216   1.897       .  S
Al216       O224   1.909       .  S
Al216       O226   1.902       .  S
Al216       O225   1.787       .  S
C217        O230   1.267       .  A
C217        C617   1.481       .  S
O218        C228   1.262       .  A
O218       Al220   1.905       .  S
O219        C232   1.259       .  A
O219       Al229   1.891       .  S
Al220       O233   1.899       .  S
Al220       O230   1.928       .  S
Al220       O225   1.791       .  S
O221        C228   1.264       .  A
O221       Al229   1.912       .  S
O222        C231   1.265       .  A
O222       Al229   1.914       .  S
O223       Al229   1.900       .  S
O224        C231   1.263       .  A
O225       Al229   1.787       .  S
O226        C227   1.258       .  A
C227        C454   1.470       .  S
C228        C657   1.481       .  S
C231        C484   1.468       .  S
C232        O233   1.260       .  A
C232        C427   1.472       .  S
C234        C394   1.476       .  S
C234        C235   1.399       .  A
C234       C1271   1.395       .  A
C235        C236   1.418       .  A
C235        H240   1.077       .  S
C236        C245   1.516       .  S
C236        C237   1.419       .  A
C237       C1270   1.404       .  A
C237        H241   1.074       .  S
C238        C407   1.490   1_565  S
C238        C239   1.398       .  A
C238       C1269   1.404       .  A
C239       C1266   1.395       .  A
C239        H242   1.083   1_565  S
C243        C477   1.469       .  S
C243        C244   1.394       .  A
C243        C248   1.394       .  A
C244        C245   1.412       .  A
C244        H249   1.076       .  S
C245        C246   1.416       .  A
C246        C247   1.411       .  A
C246        H250   1.071       .  S
C247        C384   1.505       .  S
C247        C248   1.408       .  A
C248        H251   1.081       .  S
C252        C374   1.498       .  S
C252        C253   1.414       .  A
C252        C257   1.407       .  A
C253        C254   1.406       .  A
C253       H1290   1.082       .  S
C254       C1469   1.477       .  S
C254        C255   1.396       .  A
C255        C256   1.400       .  A
C255        H259   1.083       .  S
C256        C263   1.489       .  S
C256        C257   1.404       .  A
C257        H260   1.081       .  S
H258       C1285   1.082   1_545  S
C261       C2531   1.518   1_455  S
C261        C262   1.407       .  A
C261       C2330   1.415       .  A
C262        C263   1.401       .  A
C262        H267   1.073       .  S
C263        C264   1.399       .  A
C264        C265   1.402       .  A
C264        H268   1.080       .  S
C265        C364   1.499       .  S
C265       C2330   1.411       .  A
C266       C2325   1.415       .  A
C266       C2329   1.411       .  A
C266        H269   1.072       .  S
C270        C444   1.477       .  S
C270        C271   1.405       .  A
C270        C275   1.397       .  A
C271        C272   1.417       .  A
C271        H276   1.080       .  S
C272        C283   1.505       .  S
C272        C273   1.408       .  A
C273        C274   1.401       .  A
C273        H277   1.077       .  S
C274        C354   1.479       .  S
C274        C275   1.397       .  A
C275        H278   1.084       .  S
C279        C344   1.483       .  S
C279        C284   1.403       .  A
C279       C2344   1.399       .  A
C280        C281   1.405       .  A
C280       C2343   1.399       .  A
C280        H285   1.082       .  S
C281        C417   1.484       .  S
C281       C2346   1.404       .  A
C282        C283   1.405       .  A
C282       C2345   1.404       .  A
C282        H286   1.080       .  S
C283        C284   1.413       .  A
C284        H287   1.079       .  S
C288        C334   1.557       .  S
C288        C357   1.551       .  S
C288        C387   1.559       .  S
C288        C907   1.559       .  S
C289        C377   1.568       .  S
C289        C397   1.572       .  S
C289        C887   1.584       .  S
C289       C1359   1.574       .  S
C290        C347   1.557       .  S
C290        C367   1.560       .  S
C290        C894   1.566       .  S
C290       C2378   1.558   1_455  S
O291        C306   1.265       .  A
O291       Al299   1.916       .  S
C292        O302   1.261   1_554  A
C292        O293   1.264   1_554  A
C292        C957   1.477       .  S
O293       Al295   1.908       .  S
O294        C296   1.261   1_556  A
O294       Al295   1.905       .  S
Al295       O303   1.897       .  S
Al295       O305   1.911       .  S
Al295       O304   1.788       .  S
C296        O309   1.259       .  A
C296        C914   1.476       .  S
O297        C307   1.260   1_556  A
O297       Al299   1.908       .  S
O298        C311   1.264       .  A
O298       Al308   1.914       .  S
Al299       O312   1.896       .  S
Al299       O309   1.900   1_556  S
Al299       O304   1.791       .  S
O300        C307   1.259   1_556  A
O300       Al308   1.910       .  S
O301        C310   1.265       .  A
O301       Al308   1.919       .  S
O302       Al308   1.902       .  S
O303        C310   1.260       .  A
O304       Al308   1.786       .  S
O305        C306   1.264       .  A
C306        C324   1.491       .  S
C307        C997   1.472       .  S
C310        C317   1.489       .  S
C311        O312   1.261       .  A
C311        C337   1.480       .  S
C313        C314   1.420       .  A
C313        C318   1.403       .  A
C313        H320   1.080       .  S
C314       C2354   1.558       .  S
C314        C315   1.413       .  A
C315        C316   1.396       .  A
C315        F322   1.356       .  S
C316        C317   1.407       .  A
C316        H321   1.083       .  S
C317        C318   1.404       .  A
C318        F319   1.357       .  S
C323        C324   1.402       .  A
C323        C328   1.396       .  A
C323        H330   1.083       .  S
C324        C325   1.405       .  A
C325        C326   1.404       .  A
C325        F332   1.357       .  S
C326        C327   1.419       .  A
C326        H331   1.075       .  S
C327       C1321   1.574   1_545  S
C327        C328   1.423       .  A
C328        F329   1.359       .  S
C333        C334   1.414       .  A
C333        C338   1.401       .  A
C333        H340   1.083       .  S
C334        C335   1.425       .  A
C335        C336   1.396       .  A
C335        F342   1.356       .  S
C336        C337   1.398       .  A
C336        H341   1.084       .  S
C337        C338   1.405       .  A
C338        F339   1.357       .  S
C343        C344   1.398       .  A
C343        C348   1.389       .  A
C343        H350   1.084       .  S
C344       C2409   1.406   1_455  A
C345        C346   1.404       .  A
C345       C2408   1.406       .  A
C345        F352   1.357       .  S
C346       C2411   1.417       .  A
C346        H351   1.079       .  S
C347        C348   1.419       .  A
C347       C2410   1.417   1_455  A
C348        F349   1.358       .  S
C353        C354   1.397       .  A
C353        C358   1.386       .  A
C353        H360   1.083       .  S
C354        C355   1.407       .  A
C355        C356   1.398       .  A
C355        F362   1.358       .  S
C356        C357   1.413       .  A
C356        H361   1.078       .  S
C357        C358   1.420       .  A
C358        F359   1.358       .  S
C363        C368   1.393       .  A
C363       C2428   1.405       .  A
C363        H370   1.080       .  S
C364        C365   1.412       .  A
C364       C2427   1.405       .  A
C365        C366   1.394       .  A
C365        F372   1.357       .  S
C366        C367   1.412       .  A
C366        H371   1.075       .  S
C367       C2432   1.419   1_455  A
C368       C2431   1.419       .  A
C368        F369   1.357       .  S
C373        C378   1.401       .  A
C373       C1406   1.403   1_545  A
C373        H380   1.082       .  S
C374        C375   1.409       .  A
C374       C1405   1.403       .  A
C375        C376   1.392       .  A
C375        F382   1.358       .  S
C376        C377   1.412       .  A
C376        H381   1.074       .  S
C377       C1410   1.428       .  A
C378       C1409   1.428   1_545  A
C378        F379   1.357       .  S
C383        C384   1.406       .  A
C383        C388   1.391       .  A
C383        H390   1.080       .  S
C384        C385   1.415       .  A
C385        C386   1.399       .  A
C385        F392   1.357       .  S
C386        C387   1.412       .  A
C386        H391   1.076       .  S
C387        C388   1.418       .  A
C388        F389   1.358       .  S
C393        C394   1.402       .  A
C393        C398   1.405       .  A
C393        H400   1.083       .  S
C394        C395   1.394       .  A
C395        C396   1.386       .  A
C395        F402   1.359       .  S
C396        C397   1.422       .  A
C396        H401   1.074       .  S
C397        C398   1.423       .  A
C398        F399   1.358       .  S
C403        C404   1.419       .  A
C403        C408   1.400       .  A
C403        H410   1.081       .  S
C404        C405   1.420       .  A
C405        C406   1.390       .  A
C405        F412   1.349       .  S
C406        C407   1.399       .  A
C406        H411   1.083       .  S
C407        C408   1.406       .  A
C408       F1441   1.357   1_545  S
F409       C1440   1.357       .  S
C413        C414   1.417       .  A
C413        C418   1.387       .  A
C413        H420   1.061       .  S
C414        C415   1.436       .  A
C415        C416   1.398       .  A
C415        F422   1.357       .  S
C416        C417   1.397       .  A
C416        H421   1.083       .  S
C417        C418   1.399       .  A
C418       F2483   1.359       .  S
F419       C2482   1.359       .  S
C423        C424   1.419       .  A
C423        C428   1.393       .  A
C423        H430   1.083       .  S
C424        C425   1.422       .  A
C425        C426   1.398       .  A
C425        F432   1.354       .  S
C426        C427   1.400       .  A
C426        H431   1.084       .  S
C427        C428   1.401       .  A
C428        F429   1.358       .  S
C433        C434   1.414       .  A
C433        C438   1.387       .  A
C433        H440   1.083       .  S
C434        C435   1.421       .  A
C435        C436   1.405       .  A
C435        F442   1.354       .  S
C436        C437   1.401       .  A
C436        H441   1.083       .  S
C437       C1286   1.477   1_545  S
C437        C438   1.401       .  A
C438        F439   1.358   1_545  S
C443        C444   1.402       .  A
C443        C448   1.404       .  A
C443        H450   1.083       .  S
C444        C445   1.398       .  A
C445        C446   1.389       .  A
C445        F452   1.358       .  S
C446        C447   1.419       .  A
C446        H451   1.080       .  S
C447        C448   1.419       .  A
C448        F449   1.357       .  S
C453        C454   1.400       .  A
C453        C458   1.406       .  A
C453        H460   1.083       .  S
C454        C455   1.398       .  A
C455        C456   1.390       .  A
C455        F462   1.359       .  S
C456        C457   1.416       .  A
C456        H461   1.079       .  S
C457        C458   1.421       .  A
C458        F459   1.357       .  S
C463        C464   1.422       .  A
C463        C468   1.392       .  A
C463        H470   1.076       .  S
C464        C465   1.423       .  A
C465        C466   1.397       .  A
C465        F472   1.344       .  S
C466        C467   1.408       .  A
C466        H471   1.076       .  S
C467       C2325   1.518       .  S
C467        C468   1.414       .  A
C468       F2533   1.355       .  S
F469       C2532   1.355       .  S
C473        C474   1.422       .  A
C473        C478   1.387       .  A
C473        H480   1.078       .  S
C474        C475   1.420       .  A
C475        C476   1.403       .  A
C475        F482   1.357       .  S
C476        C477   1.401       .  A
C476        H481   1.083       .  S
C477        C478   1.391       .  A
C478        F479   1.358       .  S
C483        C484   1.391       .  A
C483        C488   1.390       .  A
C483        H490   1.085       .  S
C484        C485   1.397       .  A
C485        C486   1.406       .  A
C485        F492   1.357       .  S
C486        C487   1.423       .  A
C486        H491   1.081       .  S
C487        C488   1.431       .  A
C488        F489   1.352       .  S
C493        C494   1.416       .  A
C493        C498   1.393       .  A
C493        H500   1.080       .  S
C494        C495   1.423       .  A
C495        C496   1.412       .  A
C495        F502   1.357       .  S
C496        C497   1.402       .  A
C496        H501   1.083       .  S
C497        C498   1.401       .  A
C498        F499   1.359       .  S
C503        C504   1.402       .  A
C503        C508   1.402       .  A
C503        H510   1.083       .  S
C504        C505   1.403       .  A
C505        C506   1.399       .  A
C505        F512   1.358   1_455  S
C506        C507   1.416       .  A
C506        H511   1.079       .  S
C507        C508   1.419       .  A
C508        F509   1.357       .  S
C513        C514   1.419       .  A
C513        C518   1.399       .  A
C513        H520   1.077       .  S
C514        C515   1.418       .  A
C515        C516   1.399       .  A
C515        F522   1.358       .  S
C516        C517   1.405       .  A
C516        H521   1.083       .  S
C517        C518   1.404       .  A
C518        F519   1.358   1_455  S
C523        C524   1.401       .  A
C523        C528   1.398       .  A
C523        H530   1.084       .  S
C524        C525   1.399       .  A
C525        C526   1.393       .  A
C525        F532   1.358       .  S
C526        C527   1.419       .  A
C526        H531   1.083       .  S
C527        C528   1.421       .  A
C528        F529   1.354       .  S
C533        C534   1.418       .  A
C533        C538   1.390       .  A
C533        H540   1.081       .  S
C534        C535   1.417       .  A
C535        C536   1.406       .  A
C535        F542   1.357       .  S
C536        C537   1.404       .  A
C536        H541   1.083       .  S
C537        C538   1.398       .  A
C538        F539   1.358       .  S
C543        C544   1.412       .  A
C543        C548   1.395       .  A
C543        H550   1.083       .  S
C544        C545   1.426       .  A
C545        C546   1.395       .  A
C545        F552   1.356       .  S
C546        C547   1.404       .  A
C546        H551   1.081       .  S
C547        C548   1.412       .  A
C548       F2613   1.356       .  S
F549       C2612   1.356       .  S
C553        C554   1.405       .  A
C553        C558   1.392       .  A
C553        H560   1.081       .  S
C554        C555   1.411       .  A
C555        C556   1.395       .  A
C555        F562   1.356       .  S
C556        C557   1.414       .  A
C556        H561   1.083       .  S
C557        C558   1.421       .  A
C558        F559   1.353       .  S
C563        C564   1.395       .  A
C563        C568   1.391       .  A
C563        H570   1.084       .  S
C564       C1171   1.478       .  S
C564        C565   1.405       .  A
C565        C566   1.402       .  A
C565       F1604   1.357       .  S
C566        C567   1.413       .  A
C566        H571   1.079       .  S
C567        C568   1.423       .  A
C568        F569   1.356       .  S
F572       C1597   1.357   1_545  S
C573        C574   1.418       .  A
C573        C578   1.388       .  A
C573        H580   1.081       .  S
C574        C575   1.426       .  A
C575        C576   1.404       .  A
C575        F582   1.352       .  S
C576        C577   1.399       .  A
C576       H1613   1.083       .  S
C577        C578   1.396       .  A
C578        F579   1.358       .  S
H581       C1608   1.083   1_545  S
C583        C584   1.398       .  A
C583        C588   1.398       .  A
C583        H590   1.083       .  S
C584        C585   1.402       .  A
C585        C586   1.399       .  A
C585        F592   1.358       .  S
C586        C587   1.415       .  A
C586        H591   1.078       .  S
C587        C588   1.421       .  A
C588        F589   1.357       .  S
C593        C594   1.393       .  A
C593        C598   1.397       .  A
C593        H600   1.084       .  S
C594        C595   1.391       .  A
C595        C596   1.394       .  A
C595        F602   1.358       .  S
C596        C597   1.421       .  A
C596        H601   1.082       .  S
C597        C598   1.432       .  A
C598        F599   1.354       .  S
C603        C604   1.417       .  A
C603        C608   1.399       .  A
C603        H610   1.079       .  S
C604        C605   1.423       .  A
C605        C606   1.394       .  A
C605        F612   1.359       .  S
C606        C607   1.402       .  A
C606        H611   1.083       .  S
C607        C608   1.406       .  A
C608        F609   1.358       .  S
C613        C614   1.415       .  A
C613        C618   1.397       .  A
C613        H620   1.083       .  S
C614        C615   1.422       .  A
C615        C616   1.400       .  A
C615        F622   1.355       .  S
C616        C617   1.401       .  A
C616        H621   1.083       .  S
C617        C618   1.404       .  A
C618        F619   1.358       .  S
C623        C624   1.400       .  A
C623        C628   1.391       .  A
C623        H630   1.083       .  S
C624        C625   1.406       .  A
C625        C626   1.405       .  A
C625        F632   1.357       .  S
C626        C627   1.413       .  A
C626        H631   1.081       .  S
C627        C628   1.421       .  A
C628        F629   1.357       .  S
C633        C634   1.416       .  A
C633        C638   1.388       .  A
C633        H640   1.080       .  S
C634        C635   1.419       .  A
C635        C636   1.406       .  A
C635        F642   1.355       .  S
C636        C637   1.403       .  A
C636       H1673   1.083       .  S
C637        C638   1.398       .  A
C638        F639   1.358       .  S
H641       C1668   1.083       .  S
C643        C644   1.397       .  A
C643        C648   1.397       .  A
C643        H650   1.084       .  S
C644        C645   1.401       .  A
C645        C646   1.406       .  A
C645        F652   1.357       .  S
C646        C647   1.417       .  A
C646        H651   1.081       .  S
C647        C648   1.422       .  A
C648        F649   1.357       .  S
C653        C654   1.416       .  A
C653        C658   1.405       .  A
C653        H660   1.083       .  S
C654        C655   1.427       .  A
C655        C656   1.395       .  A
C655        F662   1.356       .  S
C656        C657   1.397       .  A
C656        H661   1.084       .  S
C657        C658   1.405       .  A
C658        F659   1.357       .  S
C663        C664   1.413       .  A
C663        C668   1.398       .  A
C663        H670   1.079       .  S
C664        C665   1.421       .  A
C665        C666   1.390       .  A
C665        F672   1.358       .  S
C666        C667   1.397       .  A
C666        H671   1.083       .  S
C667        C668   1.407       .  A
C668       F2733   1.358       .  S
F669       C2732   1.358   1_455  S
C673        C674   1.411       .  A
C673        C678   1.397       .  A
C673        H680   1.075       .  S
C674        C675   1.422       .  A
C675        C676   1.394       .  A
C675        F682   1.358       .  S
C676        C677   1.403       .  A
C676        H681   1.080       .  S
C677        C678   1.414       .  A
C678        F679   1.357       .  S
C683        C684   1.405       .  A
C683        C688   1.399       .  A
C683        H690   1.083       .  S
C684        C685   1.406       .  A
C685        C686   1.400       .  A
C685        F692   1.358       .  S
C686        C687   1.418       .  A
C686        H691   1.080       .  S
C687        C688   1.416       .  A
C688        F689   1.356       .  S
C693        C694   1.401       .  A
C693        C698   1.403       .  A
C693        H700   1.083       .  S
C694        C695   1.398       .  A
C695        C696   1.392       .  A
C695        F702   1.358       .  S
C696        C697   1.418       .  A
C696        H701   1.079       .  S
C697        C698   1.419       .  A
C698        F699   1.357       .  S
C703        C704   1.402       .  A
C703        C708   1.398       .  A
C703        H710   1.084       .  S
C704        C705   1.399       .  A
C705        C706   1.394       .  A
C705        F712   1.358       .  S
C706        C707   1.418       .  A
C706        H711   1.083       .  S
C707        C708   1.421       .  A
C708        F709   1.354       .  S
C713        C714   1.407       .  A
C713        C718   1.394       .  A
C713        H720   1.080       .  S
C714        C715   1.410       .  A
C715        C716   1.391       .  A
C715        F722   1.356       .  S
C716        C717   1.414       .  A
C716        H721   1.083       .  S
C717        C718   1.419       .  A
C718        F719   1.352       .  S
C723        C724   1.419       .  A
C723        C728   1.398       .  A
C723        H730   1.079       .  S
C724        C725   1.415       .  A
C725        C726   1.397       .  A
C725        F732   1.357       .  S
C726        C727   1.406       .  A
C726        H731   1.083       .  S
C727        C728   1.403       .  A
C728        F729   1.358       .  S
C733        C734   1.402       .  A
C733        C738   1.399       .  A
C733        H740   1.083       .  S
C734        C735   1.406       .  A
C735        C736   1.394       .  A
C735        F742   1.358       .  S
C736        C737   1.413       .  A
C736        H741   1.083       .  S
C737        C738   1.423       .  A
C738        F739   1.355       .  S
C743        C744   1.400       .  A
C743        C748   1.403       .  A
C743        H750   1.083       .  S
C744        C745   1.401       .  A
C745        C746   1.390       .  A
C745        F752   1.358       .  S
C746        C747   1.414       .  A
C746        H751   1.079       .  S
C747        C748   1.421       .  A
C748        F749   1.357       .  S
C753        C754   1.403       .  A
C753        C758   1.403       .  A
C753        H760   1.083       .  S
C754        C755   1.406       .  A
C755        C756   1.394       .  A
C755        F762   1.358       .  S
C756        C757   1.414       .  A
C756        H761   1.084       .  S
C757        C758   1.423       .  A
C758        F759   1.354       .  S
C763        C764   1.400       .  A
C763        C768   1.396       .  A
C763        H770   1.084       .  S
C764        C765   1.399       .  A
C765        C766   1.400       .  A
C765        F772   1.358       .  S
C766        C767   1.417       .  A
C766        H771   1.080       .  S
C767        C768   1.420       .  A
C768        F769   1.357       .  S
C773        C774   1.413       .  A
C773        C778   1.394       .  A
C773        H780   1.083       .  S
C774        C775   1.423       .  A
C775        C776   1.406       .  A
C775        F782   1.354       .  S
C776        C777   1.403       .  A
C776        H781   1.083       .  S
C777        C778   1.406       .  A
C778        F779   1.358       .  S
C783        C784   1.424       .  A
C783        C788   1.403       .  A
C783        H790   1.083       .  S
C784        C785   1.426       .  A
C785        C786   1.398       .  A
C785        F792   1.353       .  S
C786        C787   1.397       .  A
C786        H791   1.084       .  S
C787        C788   1.398       .  A
C788       F2853   1.357       .  S
F789       C2852   1.357       .  S
C793        C794   1.411       .  A
C793        C798   1.386       .  A
C793        H800   1.061       .  S
C794        C795   1.430       .  A
C795       C2860   1.406   1_455  A
C795       F2866   1.356       .  S
C796       C2859   1.406       .  A
C796       C2861   1.403       .  A
C796        H801   1.083       .  S
C797       C2153   1.491   1_455  S
C797        C798   1.402       .  A
C797       C2860   1.403   1_455  A
C798        F799   1.358       .  S
F802       C2859   1.356       .  S
C803        C804   1.412       .  A
C803        C808   1.393       .  A
C803        H810   1.081       .  S
C804        C805   1.424       .  A
C805        C806   1.401       .  A
C805        F812   1.357       .  S
C806        C807   1.402       .  A
C806        H811   1.083       .  S
C807        C808   1.408       .  A
C808        F809   1.358       .  S
C813        C814   1.420       .  A
C813        C818   1.392       .  A
C813        H820   1.078       .  S
C814        C815   1.416       .  A
C815        C816   1.401       .  A
C815        F822   1.357       .  S
C816        C817   1.406       .  A
C816       H1853   1.083       .  S
C817        C818   1.401       .  A
C818        F819   1.358       .  S
H821       C1848   1.083       .  S
C823        C824   1.407       .  A
C823        C828   1.396       .  A
C823       H1862   1.082       .  S
C824       C1128   1.493       .  S
C824        C825   1.405       .  A
C825        C826   1.389       .  A
C825        F832   1.357       .  S
C826        C827   1.417       .  A
C826        H831   1.083       .  S
C827        C828   1.419       .  A
C828        F829   1.351       .  S
H830       C1855   1.082       .  S
C833        C834   1.420       .  A
C833        C838   1.398       .  A
C833        H840   1.079       .  S
C834        C835   1.414       .  A
C835        C836   1.395       .  A
C835        F842   1.358       .  S
C836        C837   1.406       .  A
C836        H841   1.083       .  S
C837        C838   1.402       .  A
C838        F839   1.358       .  S
C843        C844   1.396       .  A
C843        C848   1.388       .  A
C843        H850   1.084       .  S
C844        C845   1.404       .  A
C845        C846   1.398       .  A
C845        F852   1.358       .  S
C846        C847   1.414       .  A
C846        H851   1.078       .  S
C847        C848   1.421       .  A
C848        F849   1.358       .  S
C853        C854   1.415       .  A
C853        C858   1.407       .  A
C853        H860   1.082       .  S
C854        C855   1.425       .  A
C855        C856   1.389       .  A
C855        F862   1.357       .  S
C856        C857   1.392       .  A
C856        H861   1.084       .  S
C857       C2110   1.474   1_455  S
C857        C858   1.403       .  A
C858        F859   1.357   1_455  S
C863        C864   1.414       .  A
C863       C1900   1.402       .  A
C863       H1902   1.081       .  S
C864        C865   1.412       .  A
C865        C866   1.389       .  A
C865        F872   1.357       .  S
C866        C867   1.407       .  A
C866        H871   1.081       .  S
C867       C1071   1.494       .  S
C867       C1900   1.409       .  A
C868       C1895   1.402   1_545  A
C868       C1899   1.409   1_545  A
C868        F869   1.357       .  S
H870       C1895   1.081       .  S
C873        C874   1.406       .  A
C873        C878   1.393       .  A
C873        H880   1.078       .  S
C874        C875   1.415       .  A
C875        C876   1.403       .  A
C875        F882   1.356       .  S
C876        C877   1.417       .  A
C876        H881   1.077       .  S
C877        C878   1.421       .  A
C878        F879   1.358       .  S
C883        C884   1.398       .  A
C883        C888   1.405       .  A
C883        H890   1.083       .  S
C884        C885   1.398       .  A
C885        C886   1.395       .  A
C885        F892   1.359       .  S
C886        C887   1.419       .  A
C886        H891   1.070       .  S
C887        C888   1.432       .  A
C888        F889   1.357       .  S
C893        C894   1.417       .  A
C893        C898   1.405       .  A
C893        H900   1.083       .  S
C894        C895   1.424       .  A
C895        C896   1.393       .  A
C895        F902   1.356       .  S
C896        C897   1.398       .  A
C896        H901   1.084       .  S
C897        C898   1.403       .  A
C898        F899   1.357       .  S
C903        C904   1.398       .  A
C903        C908   1.396       .  A
C903        H910   1.083       .  S
C904        C905   1.411       .  A
C905        C906   1.399       .  A
C905        F912   1.357       .  S
C906        C907   1.409       .  A
C906        H911   1.083       .  S
C907        C908   1.426       .  A
C908        F909   1.357       .  S
C913        C914   1.395       .  A
C913        C918   1.400       .  A
C913        H920   1.084       .  S
C914        C915   1.398       .  A
C915        C916   1.392       .  A
C915        F922   1.359   1_554  S
C916        C917   1.416       .  A
C916        H921   1.064       .  S
C917        C918   1.435       .  A
C918        F919   1.356       .  S
C923        C924   1.420   1_565  A
C923        C928   1.397   1_565  A
C923       H1962   1.081       .  S
C924        C925   1.423       .  A
C925        C926   1.394       .  A
C925        F932   1.351       .  S
C926        C927   1.400       .  A
C926        H931   1.082       .  S
C927        C928   1.406       .  A
C928       F1961   1.357   1_545  S
F929       C1960   1.357       .  S
H930       C1955   1.081       .  S
C933        C934   1.400       .  A
C933        C938   1.400       .  A
C933        H940   1.083       .  S
C934        C935   1.398       .  A
C935        C936   1.384       .  A
C935        F942   1.359       .  S
C936        C937   1.419       .  A
C936        H941   1.077       .  S
C937        C938   1.423       .  A
C938        F939   1.358       .  S
C943        C944   1.424       .  A
C943        C948   1.402       .  A
C943        H950   1.073       .  S
C944       C1035   1.585       .  S
C944        C945   1.425       .  A
C945        C946   1.395       .  A
C945        F952   1.359       .  S
C946        C947   1.402       .  A
C946        H951   1.083       .  S
C947        C948   1.401       .  A
C948        F949   1.358       .  S
C953        C954   1.413       .  A
C953        C958   1.396       .  A
C953        H960   1.081       .  S
C954        C955   1.419       .  A
C955        C956   1.400       .  A
C955        F962   1.357       .  S
C956        C957   1.400       .  A
C956        H961   1.083       .  S
C957        C958   1.405       .  A
C958        F959   1.358       .  S
C963        C968   1.404       .  A
C963       C3028   1.416   1_455  A
C963        H970   1.080       .  S
C964        C965   1.420       .  A
C964       C3027   1.416       .  A
C965        C966   1.389       .  A
C965        F972   1.356       .  S
C966        C967   1.399       .  A
C966        H971   1.084       .  S
C967       C3032   1.406       .  A
C968       C3031   1.406   1_455  A
C968        F969   1.357       .  S
C973        C974   1.413       .  A
C973        C978   1.392       .  A
C973        H980   1.080       .  S
C974       C3039   1.417       .  A
C975        C976   1.393       .  A
C975       C3038   1.417   1_455  A
C975        F982   1.357       .  S
C976       C3041   1.404   1_455  A
C976        H981   1.082       .  S
C977        C978   1.408       .  A
C977       C3040   1.404       .  A
C978        F979   1.358       .  S
C983        C984   1.416       .  A
C983        C988   1.399       .  A
C983        H990   1.080       .  S
C984       C2066   1.556   1_455  S
C984        C985   1.415       .  A
C985        C986   1.398       .  A
C985        F992   1.357       .  S
C986        C987   1.406       .  A
C986        H991   1.083       .  S
C987        C988   1.406       .  A
C988        F989   1.357       .  S
C993        C994   1.425       .  A
C993        C998   1.403       .  A
C993       H1000   1.083       .  S
C994        C995   1.432       .  A
C995        C996   1.396       .  A
C995       F1002   1.350       .  S
C996        C997   1.392       .  A
C996       H1001   1.085   1_554  S
C997        C998   1.397       .  A
C998        F999   1.357       .  S
C1003      C1004   1.402       .  A
C1003      C1008   1.404       .  A
C1003      H1010   1.083       .  S
C1004      C1005   1.396       .  A
C1005      C1006   1.387       .  A
C1005      F1012   1.359       .  S
C1006      C1007   1.419       .  A
C1006      H1011   1.073       .  S
C1007      C1008   1.423       .  A
C1008      F1009   1.358       .  S
C1013      C1014   1.418       .  A
C1013      C1018   1.397       .  A
C1013      H1020   1.070       .  S
C1014      C1015   1.431       .  A
C1015      C1016   1.399       .  A
C1015      F1022   1.357       .  S
C1016      C1017   1.401       .  A
C1016      H1021   1.083       .  S
C1017      C1018   1.405       .  A
C1018      F1019   1.358       .  S
C1023      C1024   1.419       .  A
C1023      C1028   1.404       .  A
C1023      H1030   1.078       .  S
C1024      C1025   1.421       .  A
C1025      C1026   1.395       .  A
C1025      F1032   1.358       .  S
C1026      C1027   1.404       .  A
C1026      H1031   1.083       .  S
C1027      C1028   1.405       .  A
C1028      F1029   1.357       .  S
C1033      C2026   1.586       .  S
C1033      C2039   1.570       .  S
C1033      C2046   1.581       .  S
C1033      C2056   1.565       .  S
C1034      C1986   1.556       .  S
C1034      C1996   1.558       .  S
C1034      C2006   1.552       .  S
C1034      C4080   1.556       .  S
C1035      C1949   1.580       .  S
C1035      C1956   1.565       .  S
C1035      C1969   1.566       .  S
O1036      C1051   1.262       .  A
O1036     Al1044   1.905   1_554  S
C1037      O1047   1.263       .  A
C1037      O1038   1.264       .  A
C1037      C1916   1.480       .  S
O1038     Al1040   1.915       .  S
O1039      C1041   1.263       .  A
O1039     Al1040   1.913       .  S
Al1040     O1048   1.915   1_556  S
Al1040     O1050   1.903   1_556  S
Al1040     O1049   1.795       .  S
C1041      O1054   1.260       .  A
C1041      C1929   1.478       .  S
O1042      C1052   1.261       .  A
O1042     Al1044   1.907       .  S
O1043      C1056   1.266       .  A
O1043     Al1053   1.917   1_554  S
Al1044     O1057   1.901   1_556  S
Al1044     O1054   1.895       .  S
Al1044     O1049   1.786       .  S
O1045      C1052   1.256       .  A
O1045     Al1053   1.895       .  S
O1046      C1055   1.260       .  A
O1046     Al1053   1.898   1_554  S
O1047     Al1053   1.915       .  S
O1048      C1055   1.263       .  A
O1049     Al1053   1.793       .  S
O1050      C1051   1.261       .  A
C1051      C2019   1.488       .  S
C1052      C1936   1.484       .  S
C1055      C1979   1.488       .  S
C1056      O1057   1.263       .  A
C1056      C2059   1.490       .  S
C1058      C1906   1.514       .  S
C1058      C1059   1.413       .  A
C1058      C1063   1.413       .  A
C1059      C1060   1.403       .  A
C1059      H1064   1.078       .  S
C1060      C2049   1.497       .  S
C1060      C1061   1.400       .  A
C1061      C1062   1.413       .  A
C1061      H1065   1.073       .  S
C1062      C1069   1.518       .  S
C1062      C1063   1.413       .  A
C1063      H1066   1.072       .  S
C1067      C1966   1.475       .  S
C1067      C1068   1.397       .  A
C1068      C1069   1.416       .  A
C1068      H1073   1.075       .  S
C1069      C1070   1.423       .  A
C1070      C1071   1.411       .  A
C1070      H1074   1.075       .  S
C1072      H1075   1.082   1_545  S
C1076      C1999   1.487       .  S
C1076      C3141   1.403       .  A
C1076      C1081   1.406       .  A
C1077      C3140   1.403       .  A
C1077      C3142   1.400       .  A
C1077      H1082   1.083   1_655  S
C1078      C3953   1.474       .  S
C1078      C3141   1.400       .  A
C1078      C1079   1.398       .  A
C1079      C1080   1.416       .  A
C1079      H1083   1.077       .  S
C1080      C1087   1.511       .  S
C1080      C1081   1.410       .  A
C1081      H1084   1.078       .  S
C1085      C2036   1.478       .  S
C1085      C1086   1.405       .  A
C1085      C1090   1.397       .  A
C1086      C1087   1.419       .  A
C1086      H1091   1.079       .  S
C1087      C1088   1.411       .  A
C1088      C1089   1.399       .  A
C1088      H1092   1.076       .  S
C1089      C1876   1.475       .  S
C1089      C1090   1.393       .  A
C1090      H1093   1.084       .  S
C1094      C1846   1.563       .  S
C1094      C1859   1.560       .  S
C1094      C1866   1.557       .  S
C1094      C1879   1.557       .  S
C1095      C1816   1.575       .  S
C1095      C1826   1.584       .  S
C1095      C1836   1.555       .  S
C1095      C1909   1.582       .  S
C1096      C1799   1.559       .  S
C1096      C1806   1.561       .  S
C1096      C1886   1.560       .  S
C1096      C1896   1.554       .  S
O1097      C1112   1.260       .  A
O1097     Al1105   1.891       .  S
C1098      O1108   1.261       .  A
C1098      O1099   1.263       .  A
C1098      C1786   1.487       .  S
O1099     Al1101   1.912       .  S
O1100      C1102   1.255       .  A
O1100     Al1101   1.880       .  S
Al1101     O1109   1.897       .  S
Al1101     O1111   1.913       .  S
Al1101     O1110   1.789       .  S
C1102      O1115   1.263       .  A
C1102      C1776   1.470       .  S
O1103      C1113   1.262       .  A
O1103     Al1105   1.907       .  S
O1104      C1117   1.260       .  A
O1104     Al1114   1.903       .  S
Al1105     O1118   1.915       .  S
Al1105     O1115   1.914       .  S
Al1105     O1110   1.791       .  S
O1106      C1113   1.262       .  A
O1106     Al1114   1.898       .  S
O1107      C1116   1.263       .  A
O1107     Al1114   1.908       .  S
O1108     Al1114   1.908       .  S
O1109      C1116   1.260       .  A
O1110     Al1114   1.789       .  S
O1111      C1112   1.266       .  A
C1112      C1839   1.484       .  S
C1113      C1766   1.483       .  S
C1116      C1869   1.483       .  S
C1117      O1118   1.262       .  A
C1117      C1809   1.487       .  S
C1119      C2009   1.491       .  S
C1119      C1120   1.401       .  A
C1119      C1124   1.401       .  A
C1120      C1121   1.402       .  A
C1120      H3189   1.082       .  S
C1121      C3893   1.491       .  S
C1121      C1122   1.406       .  A
C1122      C1123   1.416       .  A
C1122      H1126   1.077       .  S
C1123      C1132   1.507       .  S
C1123      C1124   1.408       .  A
C1124      H1127   1.077       .  S
H1125      C3184   1.082       .  S
C1128      C1129   1.404       .  A
C1128      C1133   1.407       .  A
C1129      C1130   1.400       .  A
C1130      C1959   1.492       .  S
C1130      C1131   1.403       .  A
C1131      C1132   1.413       .  A
C1131      H1135   1.075       .  S
C1132      C1133   1.406       .  A
C1133      H1136   1.077       .  S
C1137      C1729   1.561       .  S
C1137      C1739   1.563       .  S
C1137      C1749   1.559       .  S
C1137      C1756   1.557       .  S
C1138      C1686   1.567       .  S
C1138      C1696   1.553       .  S
C1138      C1706   1.563       .  S
C1138      C1719   1.559       .  S
C1139      C1646   1.559       .  S
C1139      C1659   1.558       .  S
C1139      C1666   1.558       .  S
C1139      C1679   1.561       .  S
O1140      C1155   1.270       .  A
O1140     Al3212   1.928       .  S
C1141      O1151   1.268       .  A
C1141      O1142   1.264       .  A
C1141      C1639   1.484       .  S
O1142     Al1144   1.897       .  S
O1143      C1145   1.254       .  A
Al1144     O1152   1.899       .  S
C1145      O1158   1.255       .  A
C1145      C1626   1.459       .  S
O1146      C1156   1.259       .  A
O1146     Al1148   1.902       .  S
O1147      C1160   1.263       .  A
Al1148     O3204   1.928   1_455  S
Al1148     O1161   1.901       .  S
Al1148     O3222   1.898   1_455  S
Al1148     O3217   1.785       .  S
O1149      C1156   1.257       .  A
O1150      C1159   1.259       .  A
O1150     Al3221   1.906       .  S
O1151     Al3221   1.922       .  S
O1152      C1159   1.257       .  A
O1153     Al3212   1.785       .  S
O1153     Al2189   1.789       .  S
O1154      C1155   1.267       .  A
C1155      C1716   1.489       .  S
C1156      C1616   1.474       .  S
Al1157     O3214   1.906   1_455  S
Al1157     O3215   1.922   1_455  S
Al1157     O2185   1.789   1_565  S
O1158     Al3212   1.898       .  S
C1159      C1759   1.485       .  S
C1160      O1161   1.261       .  A
C1160      C1676   1.475       .  S
C1162      C1669   1.476       .  S
C1162      C1167   1.402       .  A
C1163      C1164   1.400   1_545  A
C1163      H1168   1.084       .  S
C1164      C1609   1.476       .  S
C1164      C1165   1.403       .  A
C1165      H1169   1.078       .  S
C1166      C1175   1.510       .  S
C1166      C1167   1.413       .  A
C1167      H1170   1.079       .  S
C1171      C1172   1.400       .  A
C1171      C1176   1.400       .  A
C1172      C1173   1.408       .  A
C1172      H1177   1.081       .  S
C1173      C1709   1.501       .  S
C1173      C1174   1.407       .  A
C1174      C1175   1.410       .  A
C1174      H1178   1.076       .  S
C1175      C1176   1.411       .  A
C1180      C1586   1.500       .  S
C1180      C3245   1.405   1_455  A
C1180      C1185   1.413       .  A
C1181      C3244   1.405       .  A
C1181      C1182   1.397       .  A
C1181      H1186   1.079       .  S
C1182      C1699   1.481       .  S
C1182      C1183   1.399       .  A
C1183      C1184   1.410       .  A
C1183      H1187   1.076       .  S
C1184      C3255   1.507       .  S
C1184      C3249   1.409       .  A
C1185      C3248   1.409   1_455  A
C1185      H1188   1.078       .  S
C1189      C1746   1.499       .  S
C1189      C1190   1.404       .  A
C1189      C3258   1.401       .  A
C1190      C3255   1.405       .  A
C1190      H1195   1.069       .  S
C1191      C3248   1.507       .  S
C1191      C3254   1.405       .  A
C1191      C1192   1.411   1_655  A
C1192      C1193   1.412       .  A
C1192      H1196   1.079       .  S
C1193      C1579   1.502       .  S
C1193      C1194   1.406       .  A
C1194      C3253   1.401   1_455  A
C1194      H1197   1.078       .  S
C1198      C1736   1.482       .  S
C1198      C1199   1.405       .  A
C1198      C1203   1.396       .  A
C1199      C1200   1.418       .  A
C1199      H1204   1.075       .  S
C1200      C1209   1.524       .  S
C1200      C1201   1.422       .  A
C1201      C1202   1.405       .  A
C1201      H1205   1.076       .  S
C1202      C1569   1.479       .  S
C1202      C1203   1.394       .  A
C1203      H1206   1.084       .  S
C1207      C1656   1.487       .  S
C1207      C1208   1.408       .  A
C1207      C1212   1.396       .  A
C1208      C1209   1.423       .  A
C1208      H1213   1.075       .  S
C1209      C1210   1.417       .  A
C1210      C1211   1.403       .  A
C1210      H1214   1.076       .  S
C1211      C1556   1.479       .  S
C1211      C1212   1.394       .  A
C1212      H1215   1.084       .  S
C1216      C1546   1.565       .  S
C1216      C1576   1.565       .  S
C1216      C1606   1.562       .  S
C1216      C1769   1.556       .  S
C1217      C1539   1.558       .  S
C1217      C1559   1.562       .  S
C1217      C1589   1.561       .  S
C1217      C1779   1.557       .  S
C1218      C1526   1.570       .  S
C1218      C1566   1.559       .  S
C1218      C1599   1.560       .  S
C1218      C1789   1.567       .  S
O1219     Al1227   1.920       .  S
C1220      O1221   1.263       .  A
C1220      C1849   1.482       .  S
O1221     Al1223   1.896       .  S
O1222      C1224   1.259       .  A
O1222     Al3287   1.905   1_455  S
Al1223     O3286   1.905       .  S
Al1223     O1231   1.899       .  S
Al1223     O3297   1.904       .  S
Al1223     O2264   1.786   1_565  S
C1224      C1796   1.473       .  S
O1225      C1235   1.257       .  A
O1225     Al1227   1.899       .  S
O1226      C1239   1.264       .  A
O1226     Al3300   1.911   1_455  S
Al1227     O1240   1.909       .  S
Al1227     O1237   1.915       .  S
Al1227     O1232   1.789   1_455  S
O1228      C1235   1.262   1_655  A
O1228     Al3300   1.924       .  S
O1229      C1238   1.264   1_545  A
O1230     Al1236   1.915       .  S
O1231      C1238   1.259       .  A
O1232     Al2255   1.786       .  S
O1232     Al3300   1.787       .  S
O1233      C1234   1.265       .  A
O1233     Al3287   1.904   1_455  S
C1234      C1549   1.488       .  S
C1235      C1819   1.475       .  S
Al1236     O3290   1.911       .  S
Al1236     O3292   1.924       .  S
Al1236     O3296   1.787       .  S
C1238      C1529   1.482       .  S
C1239      O1240   1.265       .  A
C1239      C1536   1.481       .  S
C1241      C1496   1.586       .  S
C1241      C1506   1.562       .  S
C1241      C1519   1.585       .  S
C1241      C1636   1.566       .  S
C1242      C1466   1.558       .  S
C1242      C1479   1.564       .  S
C1242      C1489   1.558       .  S
C1242      C1619   1.563       .  S
C1243      C1436   1.564       .  S
C1243      C1446   1.586       .  S
C1243      C1456   1.555       .  S
C1243      C1629   1.584       .  S
O1244      C1259   1.259       .  A
O1244     Al1252   1.915       .  S
C1245      O1255   1.259       .  A
C1245      O1246   1.257       .  A
C1245      C1726   1.469       .  S
O1246     Al1248   1.902       .  S
O1247      C1249   1.263       .  A
O1247     Al1248   1.897       .  S
Al1248     O1256   1.909       .  S
Al1248     O1258   1.902       .  S
Al1248     O1257   1.787       .  S
C1249      O1262   1.267       .  A
C1249      C1649   1.481       .  S
O1250      C1260   1.262       .  A
O1250     Al1252   1.905       .  S
O1251      C1264   1.259       .  A
O1251     Al1261   1.891       .  S
Al1252     O1265   1.899       .  S
Al1252     O1262   1.928       .  S
Al1252     O1257   1.791       .  S
O1253      C1260   1.264       .  A
O1253     Al1261   1.912       .  S
O1254      C1263   1.265       .  A
O1254     Al1261   1.914       .  S
O1255     Al1261   1.900       .  S
O1256      C1263   1.263       .  A
O1257     Al1261   1.787       .  S
O1258      C1259   1.258       .  A
C1259      C1486   1.470       .  S
C1260      C1689   1.481       .  S
C1263      C1516   1.468       .  S
C1264      O1265   1.260       .  A
C1264      C1459   1.472       .  S
C1266      C1426   1.476       .  S
C1266      C1267   1.399       .  A
C1267      C1268   1.418       .  A
C1267      H1272   1.077       .  S
C1268      C1277   1.516       .  S
C1268      C1269   1.419       .  A
C1269      H1273   1.074       .  S
C1270      C1439   1.490       .  S
C1270      C1271   1.398       .  A
C1271      H1274   1.083       .  S
C1275      C1509   1.469       .  S
C1275      C1276   1.394       .  A
C1275      C1280   1.394       .  A
C1276      C1277   1.412       .  A
C1276      H1281   1.076       .  S
C1277      C1278   1.416       .  A
C1278      C1279   1.411       .  A
C1278      H1282   1.071       .  S
C1279      C1416   1.505       .  S
C1279      C1280   1.408       .  A
C1280      H1283   1.081       .  S
C1284      C1406   1.498       .  S
C1284      C1285   1.414       .  A
C1284      C1289   1.407       .  A
C1285      C1286   1.406       .  A
C1286      C1287   1.396       .  A
C1287      C1288   1.400       .  A
C1287      H1291   1.083       .  S
C1288      C1295   1.489       .  S
C1288      C1289   1.404       .  A
C1289      H1292   1.081       .  S
C1293      C3563   1.518   1_455  S
C1293      C1294   1.407       .  A
C1293      C3362   1.415       .  A
C1294      C1295   1.401       .  A
C1294      H1299   1.073       .  S
C1295      C1296   1.399       .  A
C1296      C1297   1.402       .  A
C1296      H1300   1.080       .  S
C1297      C1396   1.499       .  S
C1297      C3362   1.411       .  A
C1298      C3357   1.415       .  A
C1298      C3361   1.411       .  A
C1298      H1301   1.072       .  S
C1302      C1476   1.477       .  S
C1302      C1303   1.405       .  A
C1302      C1307   1.397       .  A
C1303      C1304   1.417       .  A
C1303      H1308   1.080       .  S
C1304      C1315   1.505       .  S
C1304      C1305   1.408       .  A
C1305      C1306   1.401       .  A
C1305      H1309   1.077       .  S
C1306      C1386   1.479       .  S
C1306      C1307   1.397       .  A
C1307      H1310   1.084       .  S
C1311      C1376   1.483       .  S
C1311      C3376   1.399       .  A
C1311      C1316   1.403       .  A
C1312      C3375   1.399       .  A
C1312      C1313   1.405       .  A
C1312      H1317   1.082       .  S
C1313      C1449   1.484       .  S
C1313      C3378   1.404       .  A
C1314      C3377   1.404       .  A
C1314      C1315   1.405       .  A
C1314      H1318   1.080       .  S
C1315      C1316   1.413       .  A
C1316      H1319   1.079       .  S
C1320      C1366   1.557       .  S
C1320      C1389   1.551       .  S
C1320      C1419   1.559       .  S
C1320      C1939   1.559       .  S
C1321      C1409   1.568       .  S
C1321      C1429   1.572       .  S
C1321      C1919   1.584       .  S
C1322      C3410   1.558   1_455  S
C1322      C1379   1.557       .  S
C1322      C1399   1.560       .  S
C1322      C1926   1.566       .  S
O1323      C1338   1.265       .  A
O1323     Al1331   1.916       .  S
C1324      O1334   1.261   1_554  A
C1324      O1325   1.264   1_554  A
C1324      C1989   1.477       .  S
O1325     Al1327   1.908       .  S
O1326      C1328   1.261   1_556  A
O1326     Al1327   1.905       .  S
Al1327     O1335   1.897       .  S
Al1327     O1337   1.911       .  S
Al1327     O1336   1.788       .  S
C1328      O1341   1.259       .  A
C1328      C1946   1.476       .  S
O1329      C1339   1.260   1_556  A
O1329     Al1331   1.908       .  S
O1330      C1343   1.264       .  A
O1330     Al1340   1.914       .  S
Al1331     O1344   1.896       .  S
Al1331     O1341   1.900   1_556  S
Al1331     O1336   1.791       .  S
O1332      C1339   1.259   1_556  A
O1332     Al1340   1.910       .  S
O1333      C1342   1.265       .  A
O1333     Al1340   1.919       .  S
O1334     Al1340   1.902       .  S
O1335      C1342   1.260       .  A
O1336     Al1340   1.786       .  S
O1337      C1338   1.264       .  A
C1338      C1356   1.491       .  S
C1339      C2029   1.472       .  S
C1342      C1349   1.489       .  S
C1343      O1344   1.261       .  A
C1343      C1369   1.480       .  S
C1345      C1346   1.420       .  A
C1345      C1350   1.403       .  A
C1345      H1352   1.080       .  S
C1346      C3386   1.558       .  S
C1346      C1347   1.413       .  A
C1347      C1348   1.396       .  A
C1347      F1354   1.356       .  S
C1348      C1349   1.407       .  A
C1348      H1353   1.083       .  S
C1349      C1350   1.404       .  A
C1350      F1351   1.357       .  S
C1355      C1356   1.402       .  A
C1355      C1360   1.396       .  A
C1355      H1362   1.083       .  S
C1356      C1357   1.405       .  A
C1357      C1358   1.404       .  A
C1357      F1364   1.357       .  S
C1358      C1359   1.419       .  A
C1358      H1363   1.075       .  S
C1359      C1360   1.423       .  A
C1360      F1361   1.359       .  S
C1365      C1366   1.414       .  A
C1365      C1370   1.401       .  A
C1365      H1372   1.083       .  S
C1366      C1367   1.425       .  A
C1367      C1368   1.396       .  A
C1367      F1374   1.356       .  S
C1368      C1369   1.398       .  A
C1368      H1373   1.084       .  S
C1369      C1370   1.405       .  A
C1370      F1371   1.357       .  S
C1375      C1376   1.398       .  A
C1375      C1380   1.389       .  A
C1375      H1382   1.084       .  S
C1376      C3441   1.406   1_455  A
C1377      C3440   1.406       .  A
C1377      C1378   1.404       .  A
C1377      F1384   1.357       .  S
C1378      C3443   1.417       .  A
C1378      H1383   1.079       .  S
C1379      C3442   1.417   1_455  A
C1379      C1380   1.419       .  A
C1380      F1381   1.358       .  S
C1385      C1386   1.397       .  A
C1385      C1390   1.386       .  A
C1385      H1392   1.083       .  S
C1386      C1387   1.407       .  A
C1387      C1388   1.398       .  A
C1387      F1394   1.358       .  S
C1388      C1389   1.413       .  A
C1388      H1393   1.078       .  S
C1389      C1390   1.420       .  A
C1390      F1391   1.358       .  S
C1395      C3460   1.405       .  A
C1395      C1400   1.393       .  A
C1395      H1402   1.080       .  S
C1396      C3459   1.405       .  A
C1396      C1397   1.412       .  A
C1397      C1398   1.394       .  A
C1397      F1404   1.357       .  S
C1398      C1399   1.412       .  A
C1398      H1403   1.075       .  S
C1399      C3464   1.419   1_455  A
C1400      C3463   1.419       .  A
C1400      F1401   1.357       .  S
C1405      C1410   1.401       .  A
C1405      H1412   1.082       .  S
C1406      C1407   1.409       .  A
C1407      C1408   1.392       .  A
C1407      F1414   1.358       .  S
C1408      C1409   1.412       .  A
C1408      H1413   1.074       .  S
C1410      F1411   1.357       .  S
C1415      C1416   1.406       .  A
C1415      C1420   1.391       .  A
C1415      H1422   1.080       .  S
C1416      C1417   1.415       .  A
C1417      C1418   1.399       .  A
C1417      F1424   1.357       .  S
C1418      C1419   1.412       .  A
C1418      H1423   1.076       .  S
C1419      C1420   1.418       .  A
C1420      F1421   1.358       .  S
C1425      C1426   1.402       .  A
C1425      C1430   1.405       .  A
C1425      H1432   1.083       .  S
C1426      C1427   1.394       .  A
C1427      C1428   1.386       .  A
C1427      F1434   1.359       .  S
C1428      C1429   1.422       .  A
C1428      H1433   1.074       .  S
C1429      C1430   1.423       .  A
C1430      F1431   1.358       .  S
C1435      C1436   1.419       .  A
C1435      C1440   1.400       .  A
C1435      H1442   1.081       .  S
C1436      C1437   1.420       .  A
C1437      C1438   1.390       .  A
C1437      F1444   1.349       .  S
C1438      C1439   1.399       .  A
C1438      H1443   1.083       .  S
C1439      C1440   1.406       .  A
C1445      C1446   1.417       .  A
C1445      C1450   1.387       .  A
C1445      H1452   1.061       .  S
C1446      C1447   1.436       .  A
C1447      C1448   1.398       .  A
C1447      F1454   1.357       .  S
C1448      C1449   1.397       .  A
C1448      H1453   1.083       .  S
C1449      C1450   1.399       .  A
C1450      F3515   1.359       .  S
F1451      C3514   1.359       .  S
C1455      C1456   1.419       .  A
C1455      C1460   1.393       .  A
C1455      H1462   1.083       .  S
C1456      C1457   1.422       .  A
C1457      C1458   1.398       .  A
C1457      F1464   1.354       .  S
C1458      C1459   1.400       .  A
C1458      H1463   1.084       .  S
C1459      C1460   1.401       .  A
C1460      F1461   1.358       .  S
C1465      C1466   1.414       .  A
C1465      C1470   1.387       .  A
C1465      H1472   1.083       .  S
C1466      C1467   1.421       .  A
C1467      C1468   1.405       .  A
C1467      F1474   1.354       .  S
C1468      C1469   1.401       .  A
C1468      H1473   1.083       .  S
C1469      C1470   1.401       .  A
C1470      F1471   1.358       .  S
C1475      C1476   1.402       .  A
C1475      C1480   1.404       .  A
C1475      H1482   1.083       .  S
C1476      C1477   1.398       .  A
C1477      C1478   1.389       .  A
C1477      F1484   1.358       .  S
C1478      C1479   1.419       .  A
C1478      H1483   1.080       .  S
C1479      C1480   1.419       .  A
C1480      F1481   1.357       .  S
C1485      C1486   1.400       .  A
C1485      C1490   1.406       .  A
C1485      H1492   1.083       .  S
C1486      C1487   1.398       .  A
C1487      C1488   1.390       .  A
C1487      F1494   1.359       .  S
C1488      C1489   1.416       .  A
C1488      H1493   1.079       .  S
C1489      C1490   1.421       .  A
C1490      F1491   1.357       .  S
C1495      C1496   1.422       .  A
C1495      C1500   1.392       .  A
C1495      H1502   1.076       .  S
C1496      C1497   1.423       .  A
C1497      C1498   1.397       .  A
C1497      F1504   1.344       .  S
C1498      C1499   1.408       .  A
C1498      H1503   1.076       .  S
C1499      C3357   1.518       .  S
C1499      C1500   1.414       .  A
C1500      F3565   1.355       .  S
F1501      C3564   1.355       .  S
C1505      C1506   1.422       .  A
C1505      C1510   1.387       .  A
C1505      H1512   1.078       .  S
C1506      C1507   1.420       .  A
C1507      C1508   1.403       .  A
C1507      F1514   1.357       .  S
C1508      C1509   1.401       .  A
C1508      H1513   1.083       .  S
C1509      C1510   1.391       .  A
C1510      F1511   1.358       .  S
C1515      C1516   1.391       .  A
C1515      C1520   1.390       .  A
C1515      H1522   1.085       .  S
C1516      C1517   1.397       .  A
C1517      C1518   1.406       .  A
C1517      F1524   1.357       .  S
C1518      C1519   1.423       .  A
C1518      H1523   1.081       .  S
C1519      C1520   1.431       .  A
C1520      F1521   1.352       .  S
C1525      C1526   1.416       .  A
C1525      C1530   1.393       .  A
C1525      H1532   1.080       .  S
C1526      C1527   1.423       .  A
C1527      C1528   1.412       .  A
C1527      F1534   1.357       .  S
C1528      C1529   1.402       .  A
C1528      H1533   1.083       .  S
C1529      C1530   1.401       .  A
C1530      F1531   1.359       .  S
C1535      C1536   1.402       .  A
C1535      C1540   1.402       .  A
C1535      H1542   1.083       .  S
C1536      C1537   1.403       .  A
C1537      C1538   1.399       .  A
C1537      F1544   1.358   1_455  S
C1538      C1539   1.416       .  A
C1538      H1543   1.079       .  S
C1539      C1540   1.419       .  A
C1540      F1541   1.357       .  S
C1545      C1546   1.418       .  A
C1545      C1550   1.399       .  A
C1545      H1552   1.077       .  S
C1546      C1547   1.418       .  A
C1547      C1548   1.399       .  A
C1547      F1554   1.357       .  S
C1548      C1549   1.406       .  A
C1548      H1553   1.083       .  S
C1549      C1550   1.404       .  A
C1550      F1551   1.358   1_455  S
C1555      C1556   1.401       .  A
C1555      C1560   1.398       .  A
C1555      H1562   1.084       .  S
C1556      C1557   1.399       .  A
C1557      C1558   1.393       .  A
C1557      F1564   1.358       .  S
C1558      C1559   1.419       .  A
C1558      H1563   1.083       .  S
C1559      C1560   1.422       .  A
C1560      F1561   1.354       .  S
C1565      C1566   1.418       .  A
C1565      C1570   1.390       .  A
C1565      H1572   1.081       .  S
C1566      C1567   1.417       .  A
C1567      C1568   1.406       .  A
C1567      F1574   1.357       .  S
C1568      C1569   1.404       .  A
C1568      H1573   1.083       .  S
C1569      C1570   1.398       .  A
C1570      F1571   1.358       .  S
C1575      C1576   1.412       .  A
C1575      C1580   1.395       .  A
C1575      H1582   1.083       .  S
C1576      C1577   1.425       .  A
C1577      C1578   1.395       .  A
C1577      F1584   1.356       .  S
C1578      C1579   1.404       .  A
C1578      H1583   1.081       .  S
C1579      C1580   1.412       .  A
C1580      F3645   1.356       .  S
F1581      C3644   1.356       .  S
C1585      C1586   1.405       .  A
C1585      C1590   1.392       .  A
C1585      H1592   1.081       .  S
C1586      C1587   1.411       .  A
C1587      C1588   1.395       .  A
C1587      F1594   1.356       .  S
C1588      C1589   1.414       .  A
C1588      H1593   1.083       .  S
C1589      C1590   1.421       .  A
C1590      F1591   1.353       .  S
C1595      C1596   1.395       .  A
C1595      C1600   1.391       .  A
C1595      H1602   1.084       .  S
C1596      C1597   1.405       .  A
C1597      C1598   1.402       .  A
C1598      C1599   1.413       .  A
C1598      H1603   1.079       .  S
C1599      C1600   1.423       .  A
C1600      F1601   1.356       .  S
C1605      C1606   1.418       .  A
C1605      C1610   1.388       .  A
C1605      H1612   1.081       .  S
C1606      C1607   1.426       .  A
C1607      C1608   1.404       .  A
C1607      F1614   1.353       .  S
C1608      C1609   1.399       .  A
C1609      C1610   1.397       .  A
C1610      F1611   1.358       .  S
C1615      C1616   1.398       .  A
C1615      C1620   1.398       .  A
C1615      H1622   1.083       .  S
C1616      C1617   1.402       .  A
C1617      C1618   1.399       .  A
C1617      F1624   1.358       .  S
C1618      C1619   1.415       .  A
C1618      H1623   1.078       .  S
C1619      C1620   1.421       .  A
C1620      F1621   1.357       .  S
C1625      C1626   1.393       .  A
C1625      C1630   1.397       .  A
C1625      H1632   1.084       .  S
C1626      C1627   1.391       .  A
C1627      C1628   1.394       .  A
C1627      F1634   1.358       .  S
C1628      C1629   1.421       .  A
C1628      H1633   1.082       .  S
C1629      C1630   1.432       .  A
C1630      F1631   1.354       .  S
C1635      C1636   1.417       .  A
C1635      C1640   1.399       .  A
C1635      H1642   1.079       .  S
C1636      C1637   1.423       .  A
C1637      C1638   1.394       .  A
C1637      F1644   1.359       .  S
C1638      C1639   1.402       .  A
C1638      H1643   1.083       .  S
C1639      C1640   1.406       .  A
C1640      F1641   1.358       .  S
C1645      C1646   1.415       .  A
C1645      C1650   1.397       .  A
C1645      H1652   1.083       .  S
C1646      C1647   1.422       .  A
C1647      C1648   1.400       .  A
C1647      F1654   1.355       .  S
C1648      C1649   1.401       .  A
C1648      H1653   1.083       .  S
C1649      C1650   1.404       .  A
C1650      F1651   1.358       .  S
C1655      C1656   1.400       .  A
C1655      C1660   1.391       .  A
C1655      H1662   1.083       .  S
C1656      C1657   1.406       .  A
C1657      C1658   1.404       .  A
C1657      F1664   1.357       .  S
C1658      C1659   1.413       .  A
C1658      H1663   1.081       .  S
C1659      C1660   1.421       .  A
C1660      F1661   1.357       .  S
C1665      C1666   1.416       .  A
C1665      C1670   1.388       .  A
C1665      H1672   1.080       .  S
C1666      C1667   1.419       .  A
C1667      C1668   1.406       .  A
C1667      F1674   1.355       .  S
C1668      C1669   1.403       .  A
C1669      C1670   1.398       .  A
C1670      F1671   1.358       .  S
C1675      C1676   1.397       .  A
C1675      C1680   1.397       .  A
C1675      H1682   1.084       .  S
C1676      C1677   1.401       .  A
C1677      C1678   1.406       .  A
C1677      F1684   1.357       .  S
C1678      C1679   1.417       .  A
C1678      H1683   1.081       .  S
C1679      C1680   1.422       .  A
C1680      F1681   1.357       .  S
C1685      C1686   1.416       .  A
C1685      C1690   1.405       .  A
C1685      H1692   1.083       .  S
C1686      C1687   1.427       .  A
C1687      C1688   1.395       .  A
C1687      F1694   1.356       .  S
C1688      C1689   1.397       .  A
C1688      H1693   1.084       .  S
C1689      C1690   1.405       .  A
C1690      F1691   1.357       .  S
C1695      C1696   1.413       .  A
C1695      C1700   1.398       .  A
C1695      H1702   1.079       .  S
C1696      C1697   1.421       .  A
C1697      C1698   1.390       .  A
C1697      F1704   1.358       .  S
C1698      C1699   1.397       .  A
C1698      H1703   1.083       .  S
C1699      C1700   1.407       .  A
C1700      F3765   1.358       .  S
F1701      C3764   1.358   1_455  S
C1705      C1706   1.411       .  A
C1705      C1710   1.397       .  A
C1705      H1712   1.075       .  S
C1706      C1707   1.422       .  A
C1707      C1708   1.394       .  A
C1707      F1714   1.358       .  S
C1708      C1709   1.403       .  A
C1708      H1713   1.080       .  S
C1709      C1710   1.414       .  A
C1710      F1711   1.357       .  S
C1715      C1716   1.405       .  A
C1715      C1720   1.399       .  A
C1715      H1722   1.083       .  S
C1716      C1717   1.406       .  A
C1717      C1718   1.400       .  A
C1717      F1724   1.358       .  S
C1718      C1719   1.418       .  A
C1718      H1723   1.080       .  S
C1719      C1720   1.416       .  A
C1720      F1721   1.356       .  S
C1725      C1726   1.401       .  A
C1725      C1730   1.403       .  A
C1725      H1732   1.083       .  S
C1726      C1727   1.398       .  A
C1727      C1728   1.392       .  A
C1727      F1734   1.358       .  S
C1728      C1729   1.418       .  A
C1728      H1733   1.079       .  S
C1729      C1730   1.419       .  A
C1730      F1731   1.357       .  S
C1735      C1736   1.402       .  A
C1735      C1740   1.398       .  A
C1735      H1742   1.084       .  S
C1736      C1737   1.399       .  A
C1737      C1738   1.393       .  A
C1737      F1744   1.358       .  S
C1738      C1739   1.418       .  A
C1738      H1743   1.083       .  S
C1739      C1740   1.421       .  A
C1740      F1741   1.354       .  S
C1745      C1746   1.407       .  A
C1745      C1750   1.394       .  A
C1745      H1752   1.080       .  S
C1746      C1747   1.410       .  A
C1747      C1748   1.391       .  A
C1747      F1754   1.356       .  S
C1748      C1749   1.414       .  A
C1748      H1753   1.083       .  S
C1749      C1750   1.419       .  A
C1750      F1751   1.352       .  S
C1755      C1756   1.419       .  A
C1755      C1760   1.398       .  A
C1755      H1762   1.079       .  S
C1756      C1757   1.415       .  A
C1757      C1758   1.397       .  A
C1757      F1764   1.357       .  S
C1758      C1759   1.406       .  A
C1758      H1763   1.083       .  S
C1759      C1760   1.403       .  A
C1760      F1761   1.358       .  S
C1765      C1766   1.402       .  A
C1765      C1770   1.399       .  A
C1765      H1772   1.083       .  S
C1766      C1767   1.407       .  A
C1767      C1768   1.394       .  A
C1767      F1774   1.358       .  S
C1768      C1769   1.413       .  A
C1768      H1773   1.083       .  S
C1769      C1770   1.423       .  A
C1770      F1771   1.355       .  S
C1775      C1776   1.400       .  A
C1775      C1780   1.403       .  A
C1775      H1782   1.083       .  S
C1776      C1777   1.401       .  A
C1777      C1778   1.390       .  A
C1777      F1784   1.358       .  S
C1778      C1779   1.414       .  A
C1778      H1783   1.079       .  S
C1779      C1780   1.421       .  A
C1780      F1781   1.357       .  S
C1785      C1786   1.403       .  A
C1785      C1790   1.403       .  A
C1785      H1792   1.083       .  S
C1786      C1787   1.406       .  A
C1787      C1788   1.394       .  A
C1787      F1794   1.358       .  S
C1788      C1789   1.414       .  A
C1788      H1793   1.084       .  S
C1789      C1790   1.423       .  A
C1790      F1791   1.354       .  S
C1795      C1796   1.400       .  A
C1795      C1800   1.396       .  A
C1795      H1802   1.084       .  S
C1796      C1797   1.399       .  A
C1797      C1798   1.400       .  A
C1797      F1804   1.358       .  S
C1798      C1799   1.417       .  A
C1798      H1803   1.080       .  S
C1799      C1800   1.420       .  A
C1800      F1801   1.357       .  S
C1805      C1806   1.413       .  A
C1805      C1810   1.394       .  A
C1805      H1812   1.083       .  S
C1806      C1807   1.423       .  A
C1807      C1808   1.406       .  A
C1807      F1814   1.354       .  S
C1808      C1809   1.403       .  A
C1808      H1813   1.083       .  S
C1809      C1810   1.406       .  A
C1810      F1811   1.358       .  S
C1815      C1816   1.424       .  A
C1815      C1820   1.403       .  A
C1815      H1822   1.083       .  S
C1816      C1817   1.426       .  A
C1817      C1818   1.398       .  A
C1817      F1824   1.353       .  S
C1818      C1819   1.397       .  A
C1818      H1823   1.084       .  S
C1819      C1820   1.398       .  A
C1820      F3885   1.357       .  S
F1821      C3884   1.357       .  S
C1825      C1826   1.411       .  A
C1825      C1830   1.386       .  A
C1825      H1832   1.061       .  S
C1826      C1827   1.430       .  A
C1827      C3892   1.406   1_455  A
C1827      F3898   1.356       .  S
C1828      C3891   1.406       .  A
C1828      C3893   1.403       .  A
C1828      H1833   1.083       .  S
C1829      C3185   1.491   1_455  S
C1829      C3892   1.403   1_455  A
C1829      C1830   1.402       .  A
C1830      F1831   1.358       .  S
F1834      C3891   1.356       .  S
C1835      C1836   1.412       .  A
C1835      C1840   1.393       .  A
C1835      H1842   1.081       .  S
C1836      C1837   1.424       .  A
C1837      C1838   1.401       .  A
C1837      F1844   1.357       .  S
C1838      C1839   1.402       .  A
C1838      H1843   1.083       .  S
C1839      C1840   1.408       .  A
C1840      F1841   1.358       .  S
C1845      C1846   1.420       .  A
C1845      C1850   1.392       .  A
C1845      H1852   1.078       .  S
C1846      C1847   1.416       .  A
C1847      C1848   1.401       .  A
C1847      F1854   1.357       .  S
C1848      C1849   1.406       .  A
C1849      C1850   1.401       .  A
C1850      F1851   1.358       .  S
C1855      C1856   1.407   1_545  A
C1855      C1860   1.396   1_545  A
C1856      C1857   1.405       .  A
C1857      C1858   1.389       .  A
C1857      F1864   1.357       .  S
C1858      C1859   1.417       .  A
C1858      H1863   1.083       .  S
C1859      C1860   1.418       .  A
C1860      F1861   1.352       .  S
C1865      C1866   1.420       .  A
C1865      C1870   1.398       .  A
C1865      H1872   1.079       .  S
C1866      C1867   1.414       .  A
C1867      C1868   1.395       .  A
C1867      F1874   1.358       .  S
C1868      C1869   1.406       .  A
C1868      H1873   1.083       .  S
C1869      C1870   1.402       .  A
C1870      F1871   1.358       .  S
C1875      C1876   1.396       .  A
C1875      C1880   1.388       .  A
C1875      H1882   1.084       .  S
C1876      C1877   1.404       .  A
C1877      C1878   1.398       .  A
C1877      F1884   1.358       .  S
C1878      C1879   1.414       .  A
C1878      H1883   1.078       .  S
C1879      C1880   1.421       .  A
C1880      F1881   1.358       .  S
C1885      C1886   1.415       .  A
C1885      C1890   1.407       .  A
C1885      H1892   1.082       .  S
C1886      C1887   1.425       .  A
C1887      C1888   1.389       .  A
C1887      F1894   1.357       .  S
C1888      C1889   1.392       .  A
C1888      H1893   1.084       .  S
C1889      C3142   1.474   1_455  S
C1889      C1890   1.403       .  A
C1890      F1891   1.357   1_455  S
C1895      C1896   1.414       .  A
C1896      C1897   1.412       .  A
C1897      C1898   1.389       .  A
C1897      F1904   1.357       .  S
C1898      C1899   1.407       .  A
C1898      H1903   1.081       .  S
C1900      F1901   1.357       .  S
C1905      C1906   1.406       .  A
C1905      C1910   1.393       .  A
C1905      H1912   1.078       .  S
C1906      C1907   1.415       .  A
C1907      C1908   1.403       .  A
C1907      F1914   1.356       .  S
C1908      C1909   1.417       .  A
C1908      H1913   1.077       .  S
C1909      C1910   1.421       .  A
C1910      F1911   1.358       .  S
C1915      C1916   1.398       .  A
C1915      C1920   1.405       .  A
C1915      H1922   1.083       .  S
C1916      C1917   1.398       .  A
C1917      C1918   1.395       .  A
C1917      F1924   1.359       .  S
C1918      C1919   1.419       .  A
C1918      H1923   1.070       .  S
C1919      C1920   1.432       .  A
C1920      F1921   1.357       .  S
C1925      C1926   1.417       .  A
C1925      C1930   1.405       .  A
C1925      H1932   1.083       .  S
C1926      C1927   1.424       .  A
C1927      C1928   1.393       .  A
C1927      F1934   1.356       .  S
C1928      C1929   1.398       .  A
C1928      H1933   1.084       .  S
C1929      C1930   1.403       .  A
C1930      F1931   1.357       .  S
C1935      C1936   1.398       .  A
C1935      C1940   1.396       .  A
C1935      H1942   1.083       .  S
C1936      C1937   1.411       .  A
C1937      C1938   1.399       .  A
C1937      F1944   1.357       .  S
C1938      C1939   1.409       .  A
C1938      H1943   1.083       .  S
C1939      C1940   1.426       .  A
C1940      F1941   1.357       .  S
C1945      C1946   1.395       .  A
C1945      C1950   1.400       .  A
C1945      H1952   1.084       .  S
C1946      C1947   1.398       .  A
C1947      C1948   1.392       .  A
C1947      F1954   1.359   1_554  S
C1948      C1949   1.416       .  A
C1948      H1953   1.064       .  S
C1949      C1950   1.435       .  A
C1950      F1951   1.356       .  S
C1955      C1956   1.420       .  A
C1955      C1960   1.397       .  A
C1956      C1957   1.423       .  A
C1957      C1958   1.394       .  A
C1957      F1964   1.351       .  S
C1958      C1959   1.400       .  A
C1958      H1963   1.082       .  S
C1959      C1960   1.406       .  A
C1965      C1966   1.400       .  A
C1965      C1970   1.400       .  A
C1965      H1972   1.083       .  S
C1966      C1967   1.398       .  A
C1967      C1968   1.384       .  A
C1967      F1974   1.359       .  S
C1968      C1969   1.419       .  A
C1968      H1973   1.077       .  S
C1969      C1970   1.423       .  A
C1970      F1971   1.358       .  S
C1975      C1976   1.424       .  A
C1975      C1980   1.402       .  A
C1975      H1982   1.073       .  S
C1976      C1977   1.425       .  A
C1977      C1978   1.395       .  A
C1977      F1984   1.359       .  S
C1978      C1979   1.402       .  A
C1978      H1983   1.083       .  S
C1979      C1980   1.401       .  A
C1980      F1981   1.358       .  S
C1985      C1986   1.413       .  A
C1985      C1990   1.396       .  A
C1985      H1992   1.081       .  S
C1986      C1987   1.419       .  A
C1987      C1988   1.400       .  A
C1987      F1994   1.357       .  S
C1988      C1989   1.400       .  A
C1988      H1993   1.083       .  S
C1989      C1990   1.405       .  A
C1990      F1991   1.358       .  S
C1995      C4060   1.416   1_455  A
C1995      C2000   1.404       .  A
C1995      H2002   1.080       .  S
C1996      C4059   1.416       .  A
C1996      C1997   1.420       .  A
C1997      C1998   1.389       .  A
C1997      F2004   1.356       .  S
C1998      C1999   1.399       .  A
C1998      H2003   1.084       .  S
C1999      C4064   1.406       .  A
C2000      C4063   1.406   1_455  A
C2000      F2001   1.357       .  S
C2005      C2006   1.413       .  A
C2005      C2010   1.392       .  A
C2005      H2012   1.080       .  S
C2006      C4071   1.417       .  A
C2007      C4070   1.417   1_455  A
C2007      C2008   1.393       .  A
C2007      F2014   1.357       .  S
C2008      C4073   1.404   1_455  A
C2008      H2013   1.082       .  S
C2009      C4072   1.404       .  A
C2009      C2010   1.408       .  A
C2010      F2011   1.358       .  S
C2015      C2016   1.416       .  A
C2015      C2020   1.400       .  A
C2015      H2022   1.080       .  S
C2016      C3098   1.556   1_455  S
C2016      C2017   1.415       .  A
C2017      C2018   1.398       .  A
C2017      F2024   1.357       .  S
C2018      C2019   1.406       .  A
C2018      H2023   1.083       .  S
C2019      C2020   1.406       .  A
C2020      F2021   1.357       .  S
C2025      C2026   1.425       .  A
C2025      C2030   1.403       .  A
C2025      H2032   1.083       .  S
C2026      C2027   1.432       .  A
C2027      C2028   1.396       .  A
C2027      F2034   1.350       .  S
C2028      C2029   1.392       .  A
C2028      H2033   1.085   1_554  S
C2029      C2030   1.397       .  A
C2030      F2031   1.357       .  S
C2035      C2036   1.402       .  A
C2035      C2040   1.404       .  A
C2035      H2042   1.083       .  S
C2036      C2037   1.396       .  A
C2037      C2038   1.388       .  A
C2037      F2044   1.359       .  S
C2038      C2039   1.419       .  A
C2038      H2043   1.073       .  S
C2039      C2040   1.423       .  A
C2040      F2041   1.358       .  S
C2045      C2046   1.418       .  A
C2045      C2050   1.397       .  A
C2045      H2052   1.070       .  S
C2046      C2047   1.431       .  A
C2047      C2048   1.399       .  A
C2047      F2054   1.357       .  S
C2048      C2049   1.401       .  A
C2048      H2053   1.083       .  S
C2049      C2050   1.405       .  A
C2050      F2051   1.358       .  S
C2055      C2056   1.419       .  A
C2055      C2060   1.404       .  A
C2055      H2062   1.078       .  S
C2056      C2057   1.421       .  A
C2057      C2058   1.395       .  A
C2057      F2064   1.358       .  S
C2058      C2059   1.404       .  A
C2058      H2063   1.083       .  S
C2059      C2060   1.405       .  A
C2060      F2061   1.357       .  S
C2065      C3058   1.586       .  S
C2065      C3071   1.570       .  S
C2065      C3078   1.581       .  S
C2065      C3088   1.565       .  S
C2066      C3018   1.556       .  S
C2066      C3028   1.558       .  S
C2066      C3038   1.552       .  S
C2067      C2981   1.580       .  S
C2067      C2988   1.565       .  S
C2067      C3001   1.566       .  S
C2067      C4040   1.585   1_545  S
O2068      C2083   1.262       .  A
O2068     Al2076   1.905   1_554  S
C2069      O2079   1.263       .  A
C2069      O2070   1.264       .  A
C2069      C2948   1.480       .  S
O2070     Al2072   1.915       .  S
O2071      C2073   1.263       .  A
O2071     Al2072   1.913       .  S
Al2072     O2080   1.915   1_556  S
Al2072     O2082   1.903   1_556  S
Al2072     O2081   1.795       .  S
C2073      O2086   1.260       .  A
C2073      C2961   1.478       .  S
O2074      C2084   1.261       .  A
O2074     Al2076   1.907       .  S
O2075      C2088   1.266       .  A
O2075     Al2085   1.917   1_554  S
Al2076     O2089   1.901   1_556  S
Al2076     O2086   1.895       .  S
Al2076     O2081   1.786       .  S
O2077      C2084   1.256       .  A
O2077     Al2085   1.895       .  S
O2078      C2087   1.260       .  A
O2078     Al2085   1.898   1_554  S
O2079     Al2085   1.915       .  S
O2080      C2087   1.263       .  A
O2081     Al2085   1.793       .  S
O2082      C2083   1.261       .  A
C2083      C3051   1.488       .  S
C2084      C2968   1.484       .  S
C2087      C3011   1.488       .  S
C2088      O2089   1.263       .  A
C2088      C3091   1.490       .  S
C2090      C2938   1.514       .  S
C2090      C2091   1.413       .  A
C2090      C2095   1.413       .  A
C2091      C2092   1.403       .  A
C2091      H2096   1.078       .  S
C2092      C3081   1.497       .  S
C2092      C2093   1.400       .  A
C2093      C2094   1.413       .  A
C2093      H2097   1.073       .  S
C2094      C2101   1.518       .  S
C2094      C2095   1.413       .  A
C2095      H2098   1.072       .  S
C2099      C2998   1.475       .  S
C2099      C2100   1.397       .  A
C2099      C3136   1.391       .  A
C2100      C2101   1.416       .  A
C2100      H2105   1.075       .  S
C2101      C2102   1.423       .  A
C2102      C2103   1.411       .  A
C2102      H2106   1.075       .  S
C2103      C3963   1.494   1_545  S
C2103      C3136   1.396       .  A
C2104      C3131   1.391       .  A
C2104      C3135   1.396       .  A
C2104      H2107   1.082       .  S
C2108      C3031   1.487       .  S
C2108      C2113   1.407       .  A
C2109      H2114   1.083       .  S
C2110      C2111   1.398       .  A
C2111      C2112   1.416       .  A
C2111      H2115   1.077       .  S
C2112      C2119   1.512       .  S
C2112      C2113   1.410       .  A
C2113      H2116   1.078       .  S
C2117      C3068   1.478       .  S
C2117      C2118   1.405       .  A
C2117      C2122   1.397       .  A
C2118      C2119   1.419       .  A
C2118      H2123   1.079       .  S
C2119      C2120   1.411       .  A
C2120      C2121   1.399       .  A
C2120      H2124   1.076       .  S
C2121      C2908   1.474       .  S
C2121      C2122   1.393       .  A
C2122      H2125   1.084       .  S
C2126      C2878   1.563       .  S
C2126      C2891   1.560       .  S
C2126      C2898   1.557       .  S
C2126      C2911   1.557       .  S
C2127      C2848   1.575       .  S
C2127      C2858   1.584       .  S
C2127      C2868   1.555       .  S
C2127      C2941   1.582       .  S
C2128      C2831   1.559       .  S
C2128      C2838   1.561       .  S
C2128      C2918   1.560       .  S
C2128      C2928   1.554       .  S
O2129      C2144   1.260       .  A
O2129     Al2137   1.891       .  S
C2130      O2140   1.261       .  A
C2130      O2131   1.263       .  A
C2130      C2818   1.487       .  S
O2131     Al2133   1.912       .  S
O2132      C2134   1.255       .  A
O2132     Al2133   1.880       .  S
Al2133     O2141   1.897       .  S
Al2133     O2143   1.913       .  S
Al2133     O2142   1.789       .  S
C2134      O2147   1.262       .  A
C2134      C2808   1.469       .  S
O2135      C2145   1.262       .  A
O2135     Al2137   1.907       .  S
O2136      C2149   1.260       .  A
O2136     Al2146   1.903       .  S
Al2137     O2150   1.915       .  S
Al2137     O2147   1.914       .  S
Al2137     O2142   1.791       .  S
O2138      C2145   1.262       .  A
O2138     Al2146   1.898       .  S
O2139      C2148   1.263       .  A
O2139     Al2146   1.908       .  S
O2140     Al2146   1.908       .  S
O2141      C2148   1.260       .  A
O2142     Al2146   1.789       .  S
O2143      C2144   1.266       .  A
C2144      C2871   1.484       .  S
C2145      C2798   1.482       .  S
C2148      C2901   1.483       .  S
C2149      O2150   1.262       .  A
C2149      C2841   1.487       .  S
C2151      C3041   1.491       .  S
C2151      C2152   1.401       .  A
C2151      C2156   1.401       .  A
C2152      C2153   1.402       .  A
C2153      C2154   1.406       .  A
C2154      C2155   1.416       .  A
C2154      H2158   1.077       .  S
C2155      C2164   1.507       .  S
C2155      C2156   1.408       .  A
C2156      H2159   1.077       .  S
C2160      C3920   1.493   1_545  S
C2160      C2161   1.404       .  A
C2160      C2165   1.407       .  A
C2161      C2162   1.400       .  A
C2161      H3198   1.080       .  S
C2162      C2991   1.492       .  S
C2162      C2163   1.403       .  A
C2163      C2164   1.413       .  A
C2163      H2167   1.075       .  S
C2164      C2165   1.406       .  A
C2165      H2168   1.077       .  S
H2166      C3193   1.080       .  S
C2169      C2761   1.561       .  S
C2169      C2771   1.563       .  S
C2169      C2781   1.559       .  S
C2169      C2788   1.557       .  S
C2170      C2718   1.567       .  S
C2170      C2728   1.553       .  S
C2170      C2738   1.563       .  S
C2170      C2751   1.559       .  S
C2171      C2678   1.560       .  S
C2171      C2691   1.558       .  S
C2171      C2698   1.558       .  S
C2171      C2711   1.561       .  S
O2172      C2187   1.270       .  A
C2173      O2183   1.268       .  A
C2173      O2174   1.264       .  A
C2173      C2671   1.484       .  S
O2174     Al2176   1.897       .  S
O2175      C2177   1.254       .  A
O2175     Al3208   1.901   1_545  S
Al2176     O3207   1.901       .  S
Al2176     O2184   1.899       .  S
Al2176     O3218   1.903       .  S
Al2176     O3217   1.792   1_655  S
C2177      O2190   1.255       .  A
C2177      C2658   1.459       .  S
O2178      C2188   1.259       .  A
O2178     Al2180   1.902       .  S
O2179      C2192   1.263       .  A
O2179     Al3221   1.916   1_545  S
Al2180     O2193   1.901       .  S
O2181      C2188   1.257       .  A
O2181     Al3221   1.894   1_545  S
O2182      C2191   1.259       .  A
O2184      C2191   1.257       .  A
O2185     Al3208   1.792   1_445  S
O2186      C2187   1.267       .  A
O2186     Al3208   1.903   1_545  S
C2187      C2748   1.489       .  S
C2188      C2648   1.474       .  S
Al2189     O3211   1.916       .  S
Al2189     O3213   1.894       .  S
C2191      C2791   1.485       .  S
C2192      O2193   1.261       .  A
C2192      C2708   1.475       .  S
C2194      C2701   1.476       .  S
C2194      C3227   1.401       .  A
C2194      C2199   1.402       .  A
C2195      C3226   1.400       .  A
C2195      C2196   1.400       .  A
C2195      H2200   1.084       .  S
C2196      C2641   1.476       .  S
C2196      C2197   1.403       .  A
C2197      C3230   1.410       .  A
C2197      H2201   1.078       .  S
C2198      C2207   1.510       .  S
C2198      C3229   1.410   1_545  A
C2198      C2199   1.413       .  A
C2199      H2202   1.079       .  S
C2203      C3660   1.478       .  S
C2203      C2204   1.400   1_565  A
C2203      C2208   1.400       .  A
C2204      C2205   1.408       .  A
C2204      H2209   1.081       .  S
C2205      C2741   1.501       .  S
C2205      C2206   1.407       .  A
C2206      C2207   1.410       .  A
C2206      H2210   1.076       .  S
C2207      C2208   1.411   1_545  A
C2208      H3243   1.077       .  S
H2211      C3240   1.077       .  S
C2212      C2618   1.500       .  S
C2212      C2217   1.413       .  A
C2213      C2214   1.397       .  A
C2213      H2218   1.079       .  S
C2214      C2731   1.481       .  S
C2214      C2215   1.399       .  A
C2215      C2216   1.410       .  A
C2215      H2219   1.076       .  S
C2217      H2220   1.079       .  S
C2221      C2778   1.499       .  S
C2221      C2222   1.404       .  A
C2222      H2227   1.069       .  S
C2223      C2224   1.411       .  A
C2224      C2225   1.412       .  A
C2224      H2228   1.079       .  S
C2225      C2611   1.502       .  S
C2225      C2226   1.406       .  A
C2226      H2229   1.078       .  S
C2230      C2768   1.482       .  S
C2230      C2231   1.405       .  A
C2230      C2235   1.396       .  A
C2231      C2232   1.418       .  A
C2231      H2236   1.075       .  S
C2232      C2241   1.523       .  S
C2232      C2233   1.422       .  A
C2233      C2234   1.405       .  A
C2233      H2237   1.076       .  S
C2234      C2601   1.479       .  S
C2234      C2235   1.394       .  A
C2235      H2238   1.084       .  S
C2239      C2688   1.487       .  S
C2239      C2240   1.408       .  A
C2239      C2244   1.396       .  A
C2240      C2241   1.423       .  A
C2240      H2245   1.075       .  S
C2241      C2242   1.417       .  A
C2242      C2243   1.403       .  A
C2242      H2246   1.076       .  S
C2243      C2588   1.479       .  S
C2243      C2244   1.394       .  A
C2244      H2247   1.084       .  S
C2248      C2578   1.567       .  S
C2248      C2608   1.565       .  S
C2248      C2638   1.563       .  S
C2248      C2801   1.556       .  S
C2249      C2571   1.558       .  S
C2249      C2591   1.562       .  S
C2249      C2621   1.561       .  S
C2249      C2811   1.557       .  S
C2250      C2558   1.570       .  S
C2250      C2598   1.559       .  S
C2250      C2631   1.560       .  S
C2250      C2821   1.567       .  S
O2251      C3298   1.265       .  A
O2251     Al2259   1.920   1_565  S
C2252      O3294   1.263       .  A
C2252      O2253   1.263       .  A
C2252      C2881   1.482       .  S
O2253     Al2255   1.896       .  S
O2254      C2256   1.259       .  A
Al2255     O2263   1.899       .  S
C2256      O3301   1.262       .  A
C2256      C2828   1.473       .  S
O2257      C2267   1.257       .  A
O2257     Al2259   1.899       .  S
O2258      C2271   1.264       .  A
Al2259     O2272   1.909       .  S
Al2259     O2269   1.915       .  S
Al2259     O2264   1.789       .  S
O2260      C2267   1.262       .  A
O2261      C2270   1.264       .  A
O2261     Al3300   1.932       .  S
O2262      C3284   1.263       .  A
O2262     Al2268   1.915   1_565  S
O2263      C2270   1.259       .  A
O2265      C2266   1.265       .  A
C2266      O3283   1.265       .  A
C2266      C2581   1.488       .  S
C2267      C2851   1.475       .  S
Al2268     O3293   1.932       .  S
O2269      C3288   1.262   1_545  A
C2270      C2561   1.482       .  S
C2271      O2272   1.265       .  A
C2271      C2568   1.481       .  S
C2273      C2528   1.586       .  S
C2273      C2538   1.562       .  S
C2273      C2551   1.585       .  S
C2273      C2668   1.566       .  S
C2274      C2498   1.558       .  S
C2274      C2511   1.564       .  S
C2274      C2521   1.558       .  S
C2274      C2651   1.563       .  S
C2275      C2468   1.564       .  S
C2275      C2478   1.586       .  S
C2275      C2488   1.555       .  S
C2275      C2661   1.584       .  S
O2276      C2291   1.259       .  A
O2276     Al2284   1.915       .  S
C2277      O2287   1.259       .  A
C2277      O2278   1.257       .  A
C2277      C2758   1.469       .  S
O2278     Al2280   1.902       .  S
O2279      C2281   1.263       .  A
O2279     Al2280   1.897       .  S
Al2280     O2288   1.909       .  S
Al2280     O2290   1.902       .  S
Al2280     O2289   1.787       .  S
C2281      O2294   1.267       .  A
C2281      C2681   1.481       .  S
O2282      C2292   1.262       .  A
O2282     Al2284   1.905       .  S
O2283      C2296   1.259       .  A
O2283     Al2293   1.891       .  S
Al2284     O2297   1.899       .  S
Al2284     O2294   1.928       .  S
Al2284     O2289   1.791       .  S
O2285      C2292   1.264       .  A
O2285     Al2293   1.912       .  S
O2286      C2295   1.265       .  A
O2286     Al2293   1.914       .  S
O2287     Al2293   1.900       .  S
O2288      C2295   1.263       .  A
O2289     Al2293   1.787       .  S
O2290      C2291   1.258       .  A
C2291      C2518   1.470       .  S
C2292      C2721   1.481       .  S
C2295      C2548   1.468       .  S
C2296      O2297   1.260       .  A
C2296      C2491   1.472       .  S
C2298      C2458   1.476       .  S
C2298      C2299   1.399       .  A
C2298      C3335   1.395       .  A
C2299      C2300   1.418       .  A
C2299      H2304   1.077       .  S
C2300      C2309   1.516       .  S
C2300      C2301   1.419       .  A
C2301      C3334   1.404       .  A
C2301      H2305   1.074       .  S
C2302      C2471   1.490   1_565  S
C2302      C3333   1.404       .  A
C2302      C2303   1.398       .  A
C2303      C3330   1.395       .  A
C2303      H2306   1.083   1_565  S
C2307      C2541   1.469       .  S
C2307      C2308   1.394       .  A
C2307      C2312   1.394       .  A
C2308      C2309   1.412       .  A
C2308      H2313   1.076       .  S
C2309      C2310   1.416       .  A
C2310      C2311   1.411       .  A
C2310      H2314   1.071       .  S
C2311      C2448   1.505       .  S
C2311      C2312   1.408       .  A
C2312      H2315   1.081       .  S
C2316      C2438   1.498       .  S
C2316      C2317   1.414       .  A
C2316      C2321   1.407       .  A
C2317      C2318   1.406       .  A
C2317      H3354   1.082       .  S
C2318      C3533   1.477       .  S
C2318      C2319   1.396       .  A
C2319      C2320   1.400       .  A
C2319      H2323   1.083       .  S
C2320      C2327   1.489       .  S
C2320      C2321   1.404       .  A
C2321      H2324   1.081       .  S
H2322      C3349   1.082   1_545  S
C2325      C2326   1.407       .  A
C2326      C2327   1.401       .  A
C2326      H2331   1.073       .  S
C2327      C2328   1.399       .  A
C2328      C2329   1.402       .  A
C2328      H2332   1.080       .  S
C2329      C2428   1.499       .  S
C2330      H2333   1.072   1_455  S
C2334      C2508   1.477       .  S
C2334      C2335   1.405       .  A
C2334      C2339   1.397       .  A
C2335      C2336   1.417       .  A
C2335      H2340   1.080       .  S
C2336      C2347   1.505       .  S
C2336      C2337   1.408       .  A
C2337      C2338   1.401       .  A
C2337      H2341   1.077       .  S
C2338      C2418   1.479       .  S
C2338      C2339   1.397       .  A
C2339      H2342   1.084       .  S
C2343      C2408   1.483       .  S
C2343      C2348   1.403       .  A
C2344      C2345   1.405       .  A
C2344      H2349   1.082   1_455  S
C2345      C2481   1.484       .  S
C2346      C2347   1.405       .  A
C2346      H2350   1.080       .  S
C2347      C2348   1.413       .  A
C2348      H2351   1.079       .  S
C2352      C2398   1.557       .  S
C2352      C2421   1.551       .  S
C2352      C2451   1.559       .  S
C2352      C2971   1.559       .  S
C2353      C3423   1.574       .  S
C2353      C2441   1.568       .  S
C2353      C2461   1.572       .  S
C2353      C2951   1.584       .  S
C2354      C2411   1.557       .  S
C2354      C2431   1.560       .  S
C2354      C2958   1.566       .  S
O2355      C2370   1.265       .  A
O2355     Al2363   1.916       .  S
C2356      O2366   1.261   1_554  A
C2356      O2357   1.264   1_554  A
C2356      C3021   1.477       .  S
O2357     Al2359   1.908       .  S
O2358      C2360   1.261   1_556  A
O2358     Al2359   1.905       .  S
Al2359     O2367   1.897       .  S
Al2359     O2369   1.911       .  S
Al2359     O2368   1.788       .  S
C2360      O2373   1.259       .  A
C2360      C2978   1.476       .  S
O2361      C2371   1.260   1_556  A
O2361     Al2363   1.908       .  S
O2362      C2375   1.264       .  A
O2362     Al2372   1.914       .  S
Al2363     O2376   1.896       .  S
Al2363     O2373   1.900   1_556  S
Al2363     O2368   1.791       .  S
O2364      C2371   1.259   1_556  A
O2364     Al2372   1.910       .  S
O2365      C2374   1.265       .  A
O2365     Al2372   1.919       .  S
O2366     Al2372   1.902       .  S
O2367      C2374   1.260       .  A
O2368     Al2372   1.786       .  S
O2369      C2370   1.264       .  A
C2370      C2388   1.491       .  S
C2371      C3061   1.472       .  S
C2374      C2381   1.489       .  S
C2375      O2376   1.261       .  A
C2375      C2401   1.480       .  S
C2377      C2378   1.420       .  A
C2377      C2382   1.403       .  A
C2377      H2384   1.080       .  S
C2378      C2379   1.413       .  A
C2379      C2380   1.396       .  A
C2379      F2386   1.356       .  S
C2380      C2381   1.407       .  A
C2380      H2385   1.083       .  S
C2381      C2382   1.404       .  A
C2382      F2383   1.357       .  S
C2387      C2388   1.402       .  A
C2387      C2392   1.396       .  A
C2387      H2394   1.083       .  S
C2388      C2389   1.405       .  A
C2389      C2390   1.404       .  A
C2389      F2396   1.357       .  S
C2390      C2391   1.419       .  A
C2390      H2395   1.075       .  S
C2391      C3385   1.574   1_545  S
C2391      C2392   1.423       .  A
C2392      F2393   1.359       .  S
C2397      C2398   1.414       .  A
C2397      C2402   1.401       .  A
C2397      H2404   1.083       .  S
C2398      C2399   1.425       .  A
C2399      C2400   1.396       .  A
C2399      F2406   1.356       .  S
C2400      C2401   1.398       .  A
C2400      H2405   1.084       .  S
C2401      C2402   1.405       .  A
C2402      F2403   1.357       .  S
C2407      C2408   1.398       .  A
C2407      C2412   1.389       .  A
C2407      H2414   1.084       .  S
C2409      C2410   1.404       .  A
C2409      F2416   1.357       .  S
C2410      H2415   1.079       .  S
C2411      C2412   1.419       .  A
C2412      F2413   1.358       .  S
C2417      C2418   1.397       .  A
C2417      C2422   1.386       .  A
C2417      H2424   1.083       .  S
C2418      C2419   1.407       .  A
C2419      C2420   1.398       .  A
C2419      F2426   1.358       .  S
C2420      C2421   1.413       .  A
C2420      H2425   1.078       .  S
C2421      C2422   1.420       .  A
C2422      F2423   1.358       .  S
C2427      C2432   1.393   1_455  A
C2427      H2434   1.080   1_455  S
C2428      C2429   1.412       .  A
C2429      C2430   1.394       .  A
C2429      F2436   1.357       .  S
C2430      C2431   1.412       .  A
C2430      H2435   1.075       .  S
C2432      F2433   1.357       .  S
C2437      C3470   1.403   1_545  A
C2437      C2442   1.401       .  A
C2437      H2444   1.082       .  S
C2438      C3469   1.403       .  A
C2438      C2439   1.409       .  A
C2439      C2440   1.392       .  A
C2439      F2446   1.358       .  S
C2440      C2441   1.412       .  A
C2440      H2445   1.074       .  S
C2441      C3474   1.428       .  A
C2442      C3473   1.428   1_545  A
C2442      F2443   1.357       .  S
C2447      C2448   1.406       .  A
C2447      C2452   1.391       .  A
C2447      H2454   1.080       .  S
C2448      C2449   1.415       .  A
C2449      C2450   1.399       .  A
C2449      F2456   1.357       .  S
C2450      C2451   1.412       .  A
C2450      H2455   1.076       .  S
C2451      C2452   1.418       .  A
C2452      F2453   1.358       .  S
C2457      C2458   1.402       .  A
C2457      C2462   1.405       .  A
C2457      H2464   1.083       .  S
C2458      C2459   1.394       .  A
C2459      C2460   1.386       .  A
C2459      F2466   1.359       .  S
C2460      C2461   1.422       .  A
C2460      H2465   1.074       .  S
C2461      C2462   1.423       .  A
C2462      F2463   1.358       .  S
C2467      C2468   1.419       .  A
C2467      C2472   1.400       .  A
C2467      H2474   1.081       .  S
C2468      C2469   1.420       .  A
C2469      C2470   1.390       .  A
C2469      F2476   1.349       .  S
C2470      C2471   1.399       .  A
C2470      H2475   1.083       .  S
C2471      C2472   1.406       .  A
C2472      F3505   1.357   1_545  S
F2473      C3504   1.357       .  S
C2477      C2478   1.417       .  A
C2477      C2482   1.387   1_655  A
C2477      H2484   1.061       .  S
C2478      C2479   1.436       .  A
C2479      C2480   1.398       .  A
C2479      F2486   1.357       .  S
C2480      C2481   1.397   1_655  A
C2480      H2485   1.083       .  S
C2481      C2482   1.399       .  A
C2487      C2488   1.419       .  A
C2487      C2492   1.393       .  A
C2487      H2494   1.083       .  S
C2488      C2489   1.422       .  A
C2489      C2490   1.398       .  A
C2489      F2496   1.354       .  S
C2490      C2491   1.400       .  A
C2490      H2495   1.084       .  S
C2491      C2492   1.401       .  A
C2492      F2493   1.358       .  S
C2497      C2498   1.414       .  A
C2497      C2502   1.387       .  A
C2497      H2504   1.083       .  S
C2498      C2499   1.421       .  A
C2499      C2500   1.405       .  A
C2499      F2506   1.354       .  S
C2500      C2501   1.401       .  A
C2500      H2505   1.083       .  S
C2501      C3350   1.477   1_545  S
C2501      C2502   1.401       .  A
C2502      F2503   1.358   1_545  S
C2507      C2508   1.402       .  A
C2507      C2512   1.404       .  A
C2507      H2514   1.083       .  S
C2508      C2509   1.398       .  A
C2509      C2510   1.389       .  A
C2509      F2516   1.358       .  S
C2510      C2511   1.419       .  A
C2510      H2515   1.080       .  S
C2511      C2512   1.419       .  A
C2512      F2513   1.357       .  S
C2517      C2518   1.400       .  A
C2517      C2522   1.406       .  A
C2517      H2524   1.083       .  S
C2518      C2519   1.398       .  A
C2519      C2520   1.390       .  A
C2519      F2526   1.359       .  S
C2520      C2521   1.416       .  A
C2520      H2525   1.079       .  S
C2521      C2522   1.421       .  A
C2522      F2523   1.357       .  S
C2527      C2528   1.422       .  A
C2527      C2532   1.392   1_655  A
C2527      H2534   1.076       .  S
C2528      C2529   1.423       .  A
C2529      C2530   1.397       .  A
C2529      F2536   1.344       .  S
C2530      C2531   1.408       .  A
C2530      H2535   1.076       .  S
C2531      C2532   1.414   1_655  A
C2537      C2538   1.422       .  A
C2537      C2542   1.387       .  A
C2537      H2544   1.078       .  S
C2538      C2539   1.420       .  A
C2539      C2540   1.403       .  A
C2539      F2546   1.357       .  S
C2540      C2541   1.401       .  A
C2540      H2545   1.083       .  S
C2541      C2542   1.391       .  A
C2542      F2543   1.358       .  S
C2547      C2548   1.391       .  A
C2547      C2552   1.390       .  A
C2547      H2554   1.085       .  S
C2548      C2549   1.397       .  A
C2549      C2550   1.406       .  A
C2549      F2556   1.357       .  S
C2550      C2551   1.423       .  A
C2550      H2555   1.081       .  S
C2551      C2552   1.431       .  A
C2552      F2553   1.352       .  S
C2557      C2558   1.416       .  A
C2557      C2562   1.393       .  A
C2557      H2564   1.080       .  S
C2558      C2559   1.423       .  A
C2559      C2560   1.412       .  A
C2559      F2566   1.357       .  S
C2560      C2561   1.402       .  A
C2560      H2565   1.083       .  S
C2561      C2562   1.401       .  A
C2562      F2563   1.359       .  S
C2567      C2568   1.402       .  A
C2567      C2572   1.402       .  A
C2567      H2574   1.083       .  S
C2568      C2569   1.403       .  A
C2569      C2570   1.399       .  A
C2569      F2576   1.358       .  S
C2570      C2571   1.416       .  A
C2570      H2575   1.079       .  S
C2571      C2572   1.419       .  A
C2572      F2573   1.357       .  S
C2577      C2578   1.419       .  A
C2577      C2582   1.399       .  A
C2577      H2584   1.077       .  S
C2578      C2579   1.418       .  A
C2579      C2580   1.399       .  A
C2579      F2586   1.358       .  S
C2580      C2581   1.405       .  A
C2580      H2585   1.083       .  S
C2581      C2582   1.404       .  A
C2582      F2583   1.358       .  S
C2587      C2588   1.401       .  A
C2587      C2592   1.398       .  A
C2587      H2594   1.084       .  S
C2588      C2589   1.399       .  A
C2589      C2590   1.393       .  A
C2589      F2596   1.358       .  S
C2590      C2591   1.419       .  A
C2590      H2595   1.083       .  S
C2591      C2592   1.421       .  A
C2592      F2593   1.354       .  S
C2597      C2598   1.418       .  A
C2597      C2602   1.390       .  A
C2597      H2604   1.081       .  S
C2598      C2599   1.417       .  A
C2599      C2600   1.406       .  A
C2599      F2606   1.357       .  S
C2600      C2601   1.404       .  A
C2600      H2605   1.083       .  S
C2601      C2602   1.398       .  A
C2602      F2603   1.358       .  S
C2607      C2608   1.412       .  A
C2607      C2612   1.395       .  A
C2607      H2614   1.083       .  S
C2608      C2609   1.426       .  A
C2609      C2610   1.395       .  A
C2609      F2616   1.356       .  S
C2610      C2611   1.404       .  A
C2610      H2615   1.081       .  S
C2611      C2612   1.412       .  A
C2617      C2618   1.405       .  A
C2617      C2622   1.392       .  A
C2617      H2624   1.081       .  S
C2618      C2619   1.411       .  A
C2619      C2620   1.395       .  A
C2619      F2626   1.356       .  S
C2620      C2621   1.414       .  A
C2620      H2625   1.083       .  S
C2621      C2622   1.421       .  A
C2622      F2623   1.353       .  S
C2627      C2628   1.395       .  A
C2627      C2632   1.391       .  A
C2627      H2634   1.084       .  S
C2628      C3235   1.478       .  S
C2628      C2629   1.405       .  A
C2629      C2630   1.402       .  A
C2629      F3668   1.357       .  S
C2630      C2631   1.413       .  A
C2630      H2635   1.079       .  S
C2631      C2632   1.423       .  A
C2632      F2633   1.356       .  S
F2636      C3661   1.357   1_545  S
C2637      C2638   1.418       .  A
C2637      C2642   1.388       .  A
C2637      H2644   1.081       .  S
C2638      C2639   1.426       .  A
C2639      C2640   1.404       .  A
C2639      F2646   1.352       .  S
C2640      C2641   1.399       .  A
C2640      H3677   1.083       .  S
C2641      C2642   1.396       .  A
C2642      F2643   1.358       .  S
H2645      C3672   1.083   1_545  S
C2647      C2648   1.398       .  A
C2647      C2652   1.398       .  A
C2647      H2654   1.083       .  S
C2648      C2649   1.402       .  A
C2649      C2650   1.399       .  A
C2649      F2656   1.358       .  S
C2650      C2651   1.415       .  A
C2650      H2655   1.078       .  S
C2651      C2652   1.421       .  A
C2652      F2653   1.357       .  S
C2657      C2658   1.393       .  A
C2657      C2662   1.397       .  A
C2657      H2664   1.084       .  S
C2658      C2659   1.391       .  A
C2659      C2660   1.394       .  A
C2659      F2666   1.358       .  S
C2660      C2661   1.421       .  A
C2660      H2665   1.082       .  S
C2661      C2662   1.432       .  A
C2662      F2663   1.354       .  S
C2667      C2668   1.417       .  A
C2667      C2672   1.399       .  A
C2667      H2674   1.079       .  S
C2668      C2669   1.423       .  A
C2669      C2670   1.394       .  A
C2669      F2676   1.359       .  S
C2670      C2671   1.402       .  A
C2670      H2675   1.083       .  S
C2671      C2672   1.406       .  A
C2672      F2673   1.358       .  S
C2677      C2678   1.415       .  A
C2677      C2682   1.397       .  A
C2677      H2684   1.083       .  S
C2678      C2679   1.422       .  A
C2679      C2680   1.400       .  A
C2679      F2686   1.355       .  S
C2680      C2681   1.401       .  A
C2680      H2685   1.083       .  S
C2681      C2682   1.404       .  A
C2682      F2683   1.358       .  S
C2687      C2688   1.400       .  A
C2687      C2692   1.391       .  A
C2687      H2694   1.083       .  S
C2688      C2689   1.406       .  A
C2689      C2690   1.405       .  A
C2689      F2696   1.357       .  S
C2690      C2691   1.413       .  A
C2690      H2695   1.081       .  S
C2691      C2692   1.421       .  A
C2692      F2693   1.357       .  S
C2697      C2698   1.416       .  A
C2697      C2702   1.388       .  A
C2697      H2704   1.080       .  S
C2698      C2699   1.419       .  A
C2699      C2700   1.406       .  A
C2699      F2706   1.355       .  S
C2700      C2701   1.403       .  A
C2700      H3737   1.083       .  S
C2701      C2702   1.398       .  A
C2702      F2703   1.358       .  S
H2705      C3732   1.083       .  S
C2707      C2708   1.397       .  A
C2707      C2712   1.397       .  A
C2707      H2714   1.084       .  S
C2708      C2709   1.401       .  A
C2709      C2710   1.406       .  A
C2709      F2716   1.357       .  S
C2710      C2711   1.417       .  A
C2710      H2715   1.081       .  S
C2711      C2712   1.422       .  A
C2712      F2713   1.357       .  S
C2717      C2718   1.416       .  A
C2717      C2722   1.405       .  A
C2717      H2724   1.083       .  S
C2718      C2719   1.427       .  A
C2719      C2720   1.395       .  A
C2719      F2726   1.356       .  S
C2720      C2721   1.397       .  A
C2720      H2725   1.084       .  S
C2721      C2722   1.405       .  A
C2722      F2723   1.357       .  S
C2727      C2728   1.413       .  A
C2727      C2732   1.398       .  A
C2727      H2734   1.079       .  S
C2728      C2729   1.421       .  A
C2729      C2730   1.390       .  A
C2729      F2736   1.358       .  S
C2730      C2731   1.397       .  A
C2730      H2735   1.083       .  S
C2731      C2732   1.407       .  A
C2737      C2738   1.411       .  A
C2737      C2742   1.397       .  A
C2737      H2744   1.075       .  S
C2738      C2739   1.422       .  A
C2739      C2740   1.394       .  A
C2739      F2746   1.358       .  S
C2740      C2741   1.403       .  A
C2740      H2745   1.080       .  S
C2741      C2742   1.414       .  A
C2742      F2743   1.357       .  S
C2747      C2748   1.405       .  A
C2747      C2752   1.399       .  A
C2747      H2754   1.083       .  S
C2748      C2749   1.406       .  A
C2749      C2750   1.400       .  A
C2749      F2756   1.358       .  S
C2750      C2751   1.418       .  A
C2750      H2755   1.080       .  S
C2751      C2752   1.416       .  A
C2752      F2753   1.356       .  S
C2757      C2758   1.401       .  A
C2757      C2762   1.403       .  A
C2757      H2764   1.083       .  S
C2758      C2759   1.398       .  A
C2759      C2760   1.392       .  A
C2759      F2766   1.358       .  S
C2760      C2761   1.418       .  A
C2760      H2765   1.079       .  S
C2761      C2762   1.419       .  A
C2762      F2763   1.357       .  S
C2767      C2768   1.402       .  A
C2767      C2772   1.398       .  A
C2767      H2774   1.084       .  S
C2768      C2769   1.399       .  A
C2769      C2770   1.394       .  A
C2769      F2776   1.358       .  S
C2770      C2771   1.418       .  A
C2770      H2775   1.083       .  S
C2771      C2772   1.421       .  A
C2772      F2773   1.354       .  S
C2777      C2778   1.407       .  A
C2777      C2782   1.394       .  A
C2777      H2784   1.080       .  S
C2778      C2779   1.410       .  A
C2779      C2780   1.391       .  A
C2779      F2786   1.356       .  S
C2780      C2781   1.414       .  A
C2780      H2785   1.083       .  S
C2781      C2782   1.419       .  A
C2782      F2783   1.352       .  S
C2787      C2788   1.419       .  A
C2787      C2792   1.398       .  A
C2787      H2794   1.079       .  S
C2788      C2789   1.415       .  A
C2789      C2790   1.397       .  A
C2789      F2796   1.357       .  S
C2790      C2791   1.406       .  A
C2790      H2795   1.083       .  S
C2791      C2792   1.403       .  A
C2792      F2793   1.358   1_655  S
C2797      C2798   1.402       .  A
C2797      C2802   1.399       .  A
C2797      H2804   1.083       .  S
C2798      C2799   1.406       .  A
C2799      C2800   1.394       .  A
C2799      F2806   1.358       .  S
C2800      C2801   1.413       .  A
C2800      H2805   1.083       .  S
C2801      C2802   1.423       .  A
C2802      F2803   1.355       .  S
C2807      C2808   1.400       .  A
C2807      C2812   1.403       .  A
C2807      H2814   1.083       .  S
C2808      C2809   1.401       .  A
C2809      C2810   1.390       .  A
C2809      F2816   1.358       .  S
C2810      C2811   1.414       .  A
C2810      H2815   1.079       .  S
C2811      C2812   1.421       .  A
C2812      F2813   1.357       .  S
C2817      C2818   1.403       .  A
C2817      C2822   1.403       .  A
C2817      H2824   1.083       .  S
C2818      C2819   1.406       .  A
C2819      C2820   1.394       .  A
C2819      F2826   1.358       .  S
C2820      C2821   1.414       .  A
C2820      H2825   1.084       .  S
C2821      C2822   1.423       .  A
C2822      F2823   1.354       .  S
C2827      C2828   1.400       .  A
C2827      C2832   1.396       .  A
C2827      H2834   1.084       .  S
C2828      C2829   1.399       .  A
C2829      C2830   1.400       .  A
C2829      F2836   1.358       .  S
C2830      C2831   1.417       .  A
C2830      H2835   1.080       .  S
C2831      C2832   1.420       .  A
C2832      F2833   1.357       .  S
C2837      C2838   1.413       .  A
C2837      C2842   1.394       .  A
C2837      H2844   1.083       .  S
C2838      C2839   1.423       .  A
C2839      C2840   1.406       .  A
C2839      F2846   1.354       .  S
C2840      C2841   1.403       .  A
C2840      H2845   1.083       .  S
C2841      C2842   1.406       .  A
C2842      F2843   1.358       .  S
C2847      C2848   1.424       .  A
C2847      C2852   1.403       .  A
C2847      H2854   1.083       .  S
C2848      C2849   1.426       .  A
C2849      C2850   1.398       .  A
C2849      F2856   1.353       .  S
C2850      C2851   1.397       .  A
C2850      H2855   1.084       .  S
C2851      C2852   1.398       .  A
C2857      C2858   1.411       .  A
C2857      C2862   1.386       .  A
C2857      H2864   1.061       .  S
C2858      C2859   1.430       .  A
C2860      H2865   1.083       .  S
C2861      C2862   1.402       .  A
C2862      F2863   1.358       .  S
C2867      C2868   1.412       .  A
C2867      C2872   1.393       .  A
C2867      H2874   1.081       .  S
C2868      C2869   1.424       .  A
C2869      C2870   1.401       .  A
C2869      F2876   1.357       .  S
C2870      C2871   1.402       .  A
C2870      H2875   1.083       .  S
C2871      C2872   1.408       .  A
C2872      F2873   1.358       .  S
C2877      C2878   1.420       .  A
C2877      C2882   1.392       .  A
C2877      H2884   1.078       .  S
C2878      C2879   1.416       .  A
C2879      C2880   1.401       .  A
C2879      F2886   1.357       .  S
C2880      C2881   1.406       .  A
C2880      H3917   1.083       .  S
C2881      C2882   1.401       .  A
C2882      F2883   1.358       .  S
H2885      C3912   1.083       .  S
C2887      C2888   1.407       .  A
C2887      C2892   1.396       .  A
C2887      H3926   1.082       .  S
C2888      C3192   1.493       .  S
C2888      C2889   1.405       .  A
C2889      C2890   1.389       .  A
C2889      F2896   1.357       .  S
C2890      C2891   1.417       .  A
C2890      H2895   1.083       .  S
C2891      C2892   1.419       .  A
C2892      F2893   1.351       .  S
H2894      C3919   1.082       .  S
C2897      C2898   1.420       .  A
C2897      C2902   1.398       .  A
C2897      H2904   1.079       .  S
C2898      C2899   1.414       .  A
C2899      C2900   1.395       .  A
C2899      F2906   1.358       .  S
C2900      C2901   1.406       .  A
C2900      H2905   1.083       .  S
C2901      C2902   1.402       .  A
C2902      F2903   1.358       .  S
C2907      C2908   1.396       .  A
C2907      C2912   1.388       .  A
C2907      H2914   1.084       .  S
C2908      C2909   1.404       .  A
C2909      C2910   1.398       .  A
C2909      F2916   1.358       .  S
C2910      C2911   1.414       .  A
C2910      H2915   1.078       .  S
C2911      C2912   1.421       .  A
C2912      F2913   1.358       .  S
C2917      C2918   1.415       .  A
C2917      C2922   1.407       .  A
C2917      H2924   1.082       .  S
C2918      C2919   1.425       .  A
C2919      C2920   1.389       .  A
C2919      F2926   1.357       .  S
C2920      C2921   1.392       .  A
C2920      H2925   1.084       .  S
C2921      C2922   1.403       .  A
C2922      F2923   1.357       .  S
C2927      C2928   1.414       .  A
C2927      C3964   1.402       .  A
C2927      H3966   1.081       .  S
C2928      C2929   1.412       .  A
C2929      C2930   1.389       .  A
C2929      F2936   1.357       .  S
C2930      C2931   1.407       .  A
C2930      H2935   1.081       .  S
C2931      C3135   1.494       .  S
C2931      C3964   1.409       .  A
C2932      C3959   1.402   1_545  A
C2932      C3963   1.409   1_545  A
C2932      F2933   1.357       .  S
H2934      C3959   1.081       .  S
C2937      C2938   1.406       .  A
C2937      C2942   1.393       .  A
C2937      H2944   1.078       .  S
C2938      C2939   1.415       .  A
C2939      C2940   1.403       .  A
C2939      F2946   1.356       .  S
C2940      C2941   1.417       .  A
C2940      H2945   1.077       .  S
C2941      C2942   1.421       .  A
C2942      F2943   1.358       .  S
C2947      C2948   1.398       .  A
C2947      C2952   1.405       .  A
C2947      H2954   1.083       .  S
C2948      C2949   1.398       .  A
C2949      C2950   1.395       .  A
C2949      F2956   1.359       .  S
C2950      C2951   1.419       .  A
C2950      H2955   1.070       .  S
C2951      C2952   1.432       .  A
C2952      F2953   1.357       .  S
C2957      C2958   1.417       .  A
C2957      C2962   1.405       .  A
C2957      H2964   1.083       .  S
C2958      C2959   1.424       .  A
C2959      C2960   1.393       .  A
C2959      F2966   1.356       .  S
C2960      C2961   1.398       .  A
C2960      H2965   1.084       .  S
C2961      C2962   1.403       .  A
C2962      F2963   1.357       .  S
C2967      C2968   1.398       .  A
C2967      C2972   1.396       .  A
C2967      H2974   1.083       .  S
C2968      C2969   1.411       .  A
C2969      C2970   1.399       .  A
C2969      F2976   1.357       .  S
C2970      C2971   1.409       .  A
C2970      H2975   1.083       .  S
C2971      C2972   1.426       .  A
C2972      F2973   1.357       .  S
C2977      C2978   1.395       .  A
C2977      C2982   1.400       .  A
C2977      H2984   1.084       .  S
C2978      C2979   1.398       .  A
C2979      C2980   1.392       .  A
C2979      F2986   1.359   1_554  S
C2980      C2981   1.416       .  A
C2980      H2985   1.064       .  S
C2981      C2982   1.435       .  A
C2982      F2983   1.356       .  S
C2987      C2988   1.420   1_565  A
C2987      C2992   1.397   1_565  A
C2987      H4026   1.081       .  S
C2988      C2989   1.423       .  A
C2989      C2990   1.394       .  A
C2989      F2996   1.351       .  S
C2990      C2991   1.400       .  A
C2990      H2995   1.082       .  S
C2991      C2992   1.406       .  A
C2992      F4025   1.357   1_545  S
F2993      C4024   1.357       .  S
H2994      C4019   1.081       .  S
C2997      C2998   1.400       .  A
C2997      C3002   1.400       .  A
C2997      H3004   1.083       .  S
C2998      C2999   1.398       .  A
C2999      C3000   1.384       .  A
C2999      F3006   1.359       .  S
C3000      C3001   1.419       .  A
C3000      H3005   1.077       .  S
C3001      C3002   1.423       .  A
C3002      F3003   1.358       .  S
C3007      C3008   1.424       .  A
C3007      C3012   1.402       .  A
C3007      H3014   1.073       .  S
C3008      C3099   1.585       .  S
C3008      C3009   1.425       .  A
C3009      C3010   1.395       .  A
C3009      F3016   1.359       .  S
C3010      C3011   1.402       .  A
C3010      H3015   1.083       .  S
C3011      C3012   1.401       .  A
C3012      F3013   1.358       .  S
C3017      C3018   1.413       .  A
C3017      C3022   1.396       .  A
C3017      H3024   1.081       .  S
C3018      C3019   1.419       .  A
C3019      C3020   1.400       .  A
C3019      F3026   1.357       .  S
C3020      C3021   1.400       .  A
C3020      H3025   1.083       .  S
C3021      C3022   1.405       .  A
C3022      F3023   1.358       .  S
C3027      C3032   1.404       .  A
C3027      H3034   1.080       .  S
C3028      C3029   1.420       .  A
C3029      C3030   1.389       .  A
C3029      F3036   1.356       .  S
C3030      C3031   1.399       .  A
C3030      H3035   1.084       .  S
C3032      F3033   1.357       .  S
C3037      C3038   1.413       .  A
C3037      C3042   1.392       .  A
C3037      H3044   1.080       .  S
C3039      C3040   1.393       .  A
C3039      F3046   1.357       .  S
C3040      H3045   1.082       .  S
C3041      C3042   1.408       .  A
C3042      F3043   1.358       .  S
C3047      C3048   1.416       .  A
C3047      C3052   1.399       .  A
C3047      H3054   1.080       .  S
C3048      C3049   1.415       .  A
C3049      C3050   1.398       .  A
C3049      F3056   1.357       .  S
C3050      C3051   1.406       .  A
C3050      H3055   1.083       .  S
C3051      C3052   1.406       .  A
C3052      F3053   1.357       .  S
C3057      C3058   1.425       .  A
C3057      C3062   1.403       .  A
C3057      H3064   1.083       .  S
C3058      C3059   1.432       .  A
C3059      C3060   1.396       .  A
C3059      F3066   1.350       .  S
C3060      C3061   1.392       .  A
C3060      H3065   1.085   1_554  S
C3061      C3062   1.397       .  A
C3062      F3063   1.357       .  S
C3067      C3068   1.402       .  A
C3067      C3072   1.404       .  A
C3067      H3074   1.083       .  S
C3068      C3069   1.396       .  A
C3069      C3070   1.387       .  A
C3069      F3076   1.359       .  S
C3070      C3071   1.419       .  A
C3070      H3075   1.073       .  S
C3071      C3072   1.423       .  A
C3072      F3073   1.358       .  S
C3077      C3078   1.418       .  A
C3077      C3082   1.397       .  A
C3077      H3084   1.070       .  S
C3078      C3079   1.431       .  A
C3079      C3080   1.399       .  A
C3079      F3086   1.357       .  S
C3080      C3081   1.401       .  A
C3080      H3085   1.083       .  S
C3081      C3082   1.405       .  A
C3082      F3083   1.358       .  S
C3087      C3088   1.419       .  A
C3087      C3092   1.404       .  A
C3087      H3094   1.078       .  S
C3088      C3089   1.421       .  A
C3089      C3090   1.395       .  A
C3089      F3096   1.358       .  S
C3090      C3091   1.404       .  A
C3090      H3095   1.083       .  S
C3091      C3092   1.405       .  A
C3092      F3093   1.357       .  S
C3097      C4090   1.586       .  S
C3097      C4103   1.570       .  S
C3097      C4110   1.581       .  S
C3097      C4120   1.565       .  S
C3098      C4050   1.556       .  S
C3098      C4060   1.558       .  S
C3098      C4070   1.552       .  S
C3099      C4013   1.580       .  S
C3099      C4020   1.565       .  S
C3099      C4033   1.566       .  S
O3100      C3115   1.262       .  A
O3100     Al3108   1.905   1_554  S
C3101      O3111   1.263       .  A
C3101      O3102   1.264       .  A
C3101      C3980   1.480       .  S
O3102     Al3104   1.915       .  S
O3103      C3105   1.263       .  A
O3103     Al3104   1.913       .  S
Al3104     O3112   1.915   1_556  S
Al3104     O3114   1.903   1_556  S
Al3104     O3113   1.795       .  S
C3105      O3118   1.260       .  A
C3105      C3993   1.478       .  S
O3106      C3116   1.261       .  A
O3106     Al3108   1.907       .  S
O3107      C3120   1.266       .  A
O3107     Al3117   1.917   1_554  S
Al3108     O3121   1.901   1_556  S
Al3108     O3118   1.895       .  S
Al3108     O3113   1.786       .  S
O3109      C3116   1.256       .  A
O3109     Al3117   1.895       .  S
O3110      C3119   1.260       .  A
O3110     Al3117   1.898   1_554  S
O3111     Al3117   1.915       .  S
O3112      C3119   1.263       .  A
O3113     Al3117   1.793       .  S
O3114      C3115   1.261       .  A
C3115      C4083   1.488       .  S
C3116      C4000   1.484       .  S
C3119      C4043   1.488       .  S
C3120      O3121   1.263       .  A
C3120      C4123   1.490       .  S
C3122      C3970   1.514       .  S
C3122      C3123   1.413       .  A
C3122      C3127   1.413       .  A
C3123      C3124   1.403       .  A
C3123      H3128   1.078       .  S
C3124      C4113   1.497       .  S
C3124      C3125   1.400       .  A
C3125      C3126   1.413       .  A
C3125      H3129   1.073       .  S
C3126      C3133   1.518       .  S
C3126      C3127   1.413       .  A
C3127      H3130   1.072       .  S
C3131      C4030   1.475       .  S
C3131      C3132   1.397       .  A
C3132      C3133   1.416       .  A
C3132      H3137   1.075       .  S
C3133      C3134   1.423       .  A
C3134      C3135   1.411       .  A
C3134      H3138   1.075       .  S
C3136      H3139   1.082   1_545  S
C3140      C4063   1.487       .  S
C3140      C3145   1.406       .  A
C3141      H3146   1.083       .  S
C3142      C3143   1.398       .  A
C3143      C3144   1.416       .  A
C3143      H3147   1.077       .  S
C3144      C3151   1.511       .  S
C3144      C3145   1.410       .  A
C3145      H3148   1.078       .  S
C3149      C4100   1.478       .  S
C3149      C3150   1.405       .  A
C3149      C3154   1.397       .  A
C3150      C3151   1.419       .  A
C3150      H3155   1.079       .  S
C3151      C3152   1.411       .  A
C3152      C3153   1.399       .  A
C3152      H3156   1.076       .  S
C3153      C3940   1.475       .  S
C3153      C3154   1.393       .  A
C3154      H3157   1.084       .  S
C3158      C3910   1.563       .  S
C3158      C3923   1.560       .  S
C3158      C3930   1.557       .  S
C3158      C3943   1.557       .  S
C3159      C3880   1.575       .  S
C3159      C3890   1.584       .  S
C3159      C3900   1.555       .  S
C3159      C3973   1.582       .  S
C3160      C3863   1.559       .  S
C3160      C3870   1.561       .  S
C3160      C3950   1.560       .  S
C3160      C3960   1.554       .  S
O3161      C3176   1.260       .  A
O3161     Al3169   1.891       .  S
C3162      O3172   1.261       .  A
C3162      O3163   1.263       .  A
C3162      C3850   1.487       .  S
O3163     Al3165   1.912       .  S
O3164      C3166   1.255       .  A
O3164     Al3165   1.880       .  S
Al3165     O3173   1.897       .  S
Al3165     O3175   1.913       .  S
Al3165     O3174   1.789       .  S
C3166      O3179   1.263       .  A
C3166      C3840   1.470       .  S
O3167      C3177   1.262       .  A
O3167     Al3169   1.907       .  S
O3168      C3181   1.260       .  A
O3168     Al3178   1.903       .  S
Al3169     O3182   1.915       .  S
Al3169     O3179   1.914       .  S
Al3169     O3174   1.791       .  S
O3170      C3177   1.262       .  A
O3170     Al3178   1.898       .  S
O3171      C3180   1.263       .  A
O3171     Al3178   1.908       .  S
O3172     Al3178   1.908       .  S
O3173      C3180   1.260       .  A
O3174     Al3178   1.789       .  S
O3175      C3176   1.266       .  A
C3176      C3903   1.484       .  S
C3177      C3830   1.483       .  S
C3180      C3933   1.483       .  S
C3181      O3182   1.262       .  A
C3181      C3873   1.487       .  S
C3183      C4073   1.491       .  S
C3183      C3184   1.401       .  A
C3183      C3188   1.401       .  A
C3184      C3185   1.402       .  A
C3185      C3186   1.406       .  A
C3186      C3187   1.416       .  A
C3186      H3190   1.077       .  S
C3187      C3196   1.507       .  S
C3187      C3188   1.408       .  A
C3188      H3191   1.077       .  S
C3192      C3193   1.404       .  A
C3192      C3197   1.407       .  A
C3193      C3194   1.400       .  A
C3194      C4023   1.492       .  S
C3194      C3195   1.403       .  A
C3195      C3196   1.413       .  A
C3195      H3199   1.075       .  S
C3196      C3197   1.406       .  A
C3197      H3200   1.077       .  S
C3201      C3793   1.561       .  S
C3201      C3803   1.563       .  S
C3201      C3813   1.559       .  S
C3201      C3820   1.557       .  S
C3202      C3750   1.567       .  S
C3202      C3760   1.553       .  S
C3202      C3770   1.563       .  S
C3202      C3783   1.559       .  S
C3203      C3710   1.559       .  S
C3203      C3723   1.558       .  S
C3203      C3730   1.558       .  S
C3203      C3743   1.561       .  S
O3204      C3219   1.270       .  A
C3205      O3215   1.268       .  A
C3205      O3206   1.264       .  A
C3205      C3703   1.484       .  S
O3206     Al3208   1.897       .  S
O3207      C3209   1.254       .  A
Al3208     O3216   1.899       .  S
C3209      O3222   1.255       .  A
C3209      C3690   1.459       .  S
O3210      C3220   1.259       .  A
O3210     Al3212   1.902       .  S
O3211      C3224   1.263       .  A
Al3212     O3225   1.901       .  S
O3213      C3220   1.257       .  A
O3214      C3223   1.259       .  A
O3216      C3223   1.257       .  A
O3218      C3219   1.267       .  A
C3219      C3780   1.489       .  S
C3220      C3680   1.474       .  S
C3223      C3823   1.485       .  S
C3224      O3225   1.261       .  A
C3224      C3740   1.475       .  S
C3226      C3733   1.476       .  S
C3226      C3231   1.402       .  A
C3227      C3228   1.400   1_545  A
C3227      H3232   1.084       .  S
C3228      C3673   1.476       .  S
C3228      C3229   1.403       .  A
C3229      H3233   1.078       .  S
C3230      C3239   1.510       .  S
C3230      C3231   1.413       .  A
C3231      H3234   1.079       .  S
C3235      C3236   1.400       .  A
C3235      C3240   1.400       .  A
C3236      C3237   1.408       .  A
C3236      H3241   1.081       .  S
C3237      C3773   1.501       .  S
C3237      C3238   1.407       .  A
C3238      C3239   1.410       .  A
C3238      H3242   1.076       .  S
C3239      C3240   1.411       .  A
C3244      C3650   1.500       .  S
C3244      C3249   1.413       .  A
C3245      C3246   1.397       .  A
C3245      H3250   1.079       .  S
C3246      C3763   1.481       .  S
C3246      C3247   1.399       .  A
C3247      C3248   1.410       .  A
C3247      H3251   1.076       .  S
C3249      H3252   1.078       .  S
C3253      C3810   1.499       .  S
C3253      C3254   1.404       .  A
C3254      H3259   1.069       .  S
C3255      C3256   1.411       .  A
C3256      C3257   1.412       .  A
C3256      H3260   1.079       .  S
C3257      C3643   1.502       .  S
C3257      C3258   1.406       .  A
C3258      H3261   1.078       .  S
C3262      C3800   1.482       .  S
C3262      C3263   1.405       .  A
C3262      C3267   1.396       .  A
C3263      C3264   1.418       .  A
C3263      H3268   1.075       .  S
C3264      C3273   1.524       .  S
C3264      C3265   1.422       .  A
C3265      C3266   1.405       .  A
C3265      H3269   1.076       .  S
C3266      C3633   1.479       .  S
C3266      C3267   1.394       .  A
C3267      H3270   1.084       .  S
C3271      C3720   1.487       .  S
C3271      C3272   1.408       .  A
C3271      C3276   1.396       .  A
C3272      C3273   1.423       .  A
C3272      H3277   1.075       .  S
C3273      C3274   1.417       .  A
C3274      C3275   1.403       .  A
C3274      H3278   1.076       .  S
C3275      C3620   1.479       .  S
C3275      C3276   1.394       .  A
C3276      H3279   1.084       .  S
C3280      C3610   1.565       .  S
C3280      C3640   1.565       .  S
C3280      C3670   1.562       .  S
C3280      C3833   1.556       .  S
C3281      C3603   1.558       .  S
C3281      C3623   1.562       .  S
C3281      C3653   1.561       .  S
C3281      C3843   1.557       .  S
C3282      C3590   1.570       .  S
C3282      C3630   1.559       .  S
C3282      C3663   1.560       .  S
C3282      C3853   1.567       .  S
O3283     Al3291   1.920       .  S
C3284      O3285   1.263       .  A
C3284      C3913   1.482       .  S
O3285     Al3287   1.896       .  S
O3286      C3288   1.259       .  A
Al3287     O3295   1.899       .  S
C3288      C3860   1.473       .  S
O3289      C3299   1.257       .  A
O3289     Al3291   1.899       .  S
O3290      C3303   1.264       .  A
Al3291     O3304   1.909       .  S
Al3291     O3301   1.915       .  S
Al3291     O3296   1.789       .  S
O3292      C3299   1.262       .  A
O3293      C3302   1.264   1_545  A
O3294     Al3300   1.915       .  S
O3295      C3302   1.259       .  A
O3297      C3298   1.265       .  A
C3298      C3613   1.488       .  S
C3299      C3883   1.475       .  S
C3302      C3593   1.482       .  S
C3303      O3304   1.265       .  A
C3303      C3600   1.481       .  S
C3305      C3560   1.586       .  S
C3305      C3570   1.562       .  S
C3305      C3583   1.585       .  S
C3305      C3700   1.566       .  S
C3306      C3530   1.558       .  S
C3306      C3543   1.564       .  S
C3306      C3553   1.558       .  S
C3306      C3683   1.563       .  S
C3307      C3500   1.564       .  S
C3307      C3510   1.586       .  S
C3307      C3520   1.555       .  S
C3307      C3693   1.584       .  S
O3308      C3323   1.259       .  A
O3308     Al3316   1.915       .  S
C3309      O3319   1.259       .  A
C3309      O3310   1.257       .  A
C3309      C3790   1.469       .  S
O3310     Al3312   1.902       .  S
O3311      C3313   1.263       .  A
O3311     Al3312   1.897       .  S
Al3312     O3320   1.909       .  S
Al3312     O3322   1.902       .  S
Al3312     O3321   1.787       .  S
C3313      O3326   1.267       .  A
C3313      C3713   1.481       .  S
O3314      C3324   1.262       .  A
O3314     Al3316   1.905       .  S
O3315      C3328   1.259       .  A
O3315     Al3325   1.891       .  S
Al3316     O3329   1.899       .  S
Al3316     O3326   1.928       .  S
Al3316     O3321   1.791       .  S
O3317      C3324   1.264       .  A
O3317     Al3325   1.912       .  S
O3318      C3327   1.265       .  A
O3318     Al3325   1.914       .  S
O3319     Al3325   1.900       .  S
O3320      C3327   1.263       .  A
O3321     Al3325   1.787       .  S
O3322      C3323   1.258       .  A
C3323      C3550   1.470       .  S
C3324      C3753   1.481       .  S
C3327      C3580   1.468       .  S
C3328      O3329   1.260       .  A
C3328      C3523   1.472       .  S
C3330      C3490   1.476       .  S
C3330      C3331   1.399       .  A
C3331      C3332   1.418       .  A
C3331      H3336   1.077       .  S
C3332      C3341   1.516       .  S
C3332      C3333   1.419       .  A
C3333      H3337   1.074       .  S
C3334      C3503   1.490       .  S
C3334      C3335   1.398       .  A
C3335      H3338   1.083       .  S
C3339      C3573   1.469       .  S
C3339      C3340   1.394       .  A
C3339      C3344   1.394       .  A
C3340      C3341   1.412       .  A
C3340      H3345   1.076       .  S
C3341      C3342   1.416       .  A
C3342      C3343   1.411       .  A
C3342      H3346   1.071       .  S
C3343      C3480   1.505       .  S
C3343      C3344   1.408       .  A
C3344      H3347   1.081       .  S
C3348      C3470   1.498       .  S
C3348      C3349   1.414       .  A
C3348      C3353   1.407       .  A
C3349      C3350   1.406       .  A
C3350      C3351   1.396       .  A
C3351      C3352   1.400       .  A
C3351      H3355   1.083       .  S
C3352      C3359   1.489       .  S
C3352      C3353   1.404       .  A
C3353      H3356   1.081       .  S
C3357      C3358   1.407       .  A
C3358      C3359   1.401       .  A
C3358      H3363   1.073       .  S
C3359      C3360   1.399       .  A
C3360      C3361   1.402       .  A
C3360      H3364   1.080       .  S
C3361      C3460   1.499       .  S
C3362      H3365   1.072   1_455  S
C3366      C3540   1.477       .  S
C3366      C3367   1.405       .  A
C3366      C3371   1.397       .  A
C3367      C3368   1.417       .  A
C3367      H3372   1.080       .  S
C3368      C3379   1.505       .  S
C3368      C3369   1.408       .  A
C3369      C3370   1.401       .  A
C3369      H3373   1.077       .  S
C3370      C3450   1.479       .  S
C3370      C3371   1.397       .  A
C3371      H3374   1.084       .  S
C3375      C3440   1.483       .  S
C3375      C3380   1.403       .  A
C3376      C3377   1.405       .  A
C3376      H3381   1.082   1_455  S
C3377      C3513   1.484       .  S
C3378      C3379   1.405       .  A
C3378      H3382   1.080       .  S
C3379      C3380   1.413       .  A
C3380      H3383   1.079       .  S
C3384      C3430   1.557       .  S
C3384      C3453   1.551       .  S
C3384      C3483   1.559       .  S
C3384      C4003   1.559       .  S
C3385      C3473   1.568       .  S
C3385      C3493   1.572       .  S
C3385      C3983   1.584       .  S
C3386      C3443   1.557       .  S
C3386      C3463   1.560       .  S
C3386      C3990   1.566       .  S
O3387      C3402   1.265       .  A
O3387     Al3395   1.916       .  S
C3388      O3398   1.261   1_554  A
C3388      O3389   1.264   1_554  A
C3388      C4053   1.477       .  S
O3389     Al3391   1.908       .  S
O3390      C3392   1.261   1_556  A
O3390     Al3391   1.905       .  S
Al3391     O3399   1.897       .  S
Al3391     O3401   1.911       .  S
Al3391     O3400   1.788       .  S
C3392      O3405   1.259       .  A
C3392      C4010   1.476       .  S
O3393      C3403   1.260   1_556  A
O3393     Al3395   1.908       .  S
O3394      C3407   1.264       .  A
O3394     Al3404   1.914       .  S
Al3395     O3408   1.896       .  S
Al3395     O3405   1.900   1_556  S
Al3395     O3400   1.791       .  S
O3396      C3403   1.259   1_556  A
O3396     Al3404   1.910       .  S
O3397      C3406   1.265       .  A
O3397     Al3404   1.919       .  S
O3398     Al3404   1.902       .  S
O3399      C3406   1.260       .  A
O3400     Al3404   1.786       .  S
O3401      C3402   1.264       .  A
C3402      C3420   1.491       .  S
C3403      C4093   1.472       .  S
C3406      C3413   1.489       .  S
C3407      O3408   1.261       .  A
C3407      C3433   1.480       .  S
C3409      C3410   1.420       .  A
C3409      C3414   1.403       .  A
C3409      H3416   1.080       .  S
C3410      C3411   1.413       .  A
C3411      C3412   1.396       .  A
C3411      F3418   1.356       .  S
C3412      C3413   1.407       .  A
C3412      H3417   1.083       .  S
C3413      C3414   1.404       .  A
C3414      F3415   1.357       .  S
C3419      C3420   1.402       .  A
C3419      C3424   1.396       .  A
C3419      H3426   1.083       .  S
C3420      C3421   1.405       .  A
C3421      C3422   1.404       .  A
C3421      F3428   1.357       .  S
C3422      C3423   1.419       .  A
C3422      H3427   1.075       .  S
C3423      C3424   1.423       .  A
C3424      F3425   1.359       .  S
C3429      C3430   1.414       .  A
C3429      C3434   1.401       .  A
C3429      H3436   1.083       .  S
C3430      C3431   1.425       .  A
C3431      C3432   1.396       .  A
C3431      F3438   1.356       .  S
C3432      C3433   1.398       .  A
C3432      H3437   1.084       .  S
C3433      C3434   1.405       .  A
C3434      F3435   1.357       .  S
C3439      C3440   1.398       .  A
C3439      C3444   1.389       .  A
C3439      H3446   1.084       .  S
C3441      C3442   1.404       .  A
C3441      F3448   1.357       .  S
C3442      H3447   1.079       .  S
C3443      C3444   1.419       .  A
C3444      F3445   1.358       .  S
C3449      C3450   1.397       .  A
C3449      C3454   1.386       .  A
C3449      H3456   1.083       .  S
C3450      C3451   1.407       .  A
C3451      C3452   1.398       .  A
C3451      F3458   1.358       .  S
C3452      C3453   1.413       .  A
C3452      H3457   1.078       .  S
C3453      C3454   1.420       .  A
C3454      F3455   1.358       .  S
C3459      C3464   1.393   1_455  A
C3459      H3466   1.080   1_455  S
C3460      C3461   1.412       .  A
C3461      C3462   1.394       .  A
C3461      F3468   1.357       .  S
C3462      C3463   1.412       .  A
C3462      H3467   1.075       .  S
C3464      F3465   1.357       .  S
C3469      C3474   1.401       .  A
C3469      H3476   1.082       .  S
C3470      C3471   1.409       .  A
C3471      C3472   1.392       .  A
C3471      F3478   1.358       .  S
C3472      C3473   1.412       .  A
C3472      H3477   1.074       .  S
C3474      F3475   1.357       .  S
C3479      C3480   1.406       .  A
C3479      C3484   1.391       .  A
C3479      H3486   1.080       .  S
C3480      C3481   1.415       .  A
C3481      C3482   1.399       .  A
C3481      F3488   1.357       .  S
C3482      C3483   1.412       .  A
C3482      H3487   1.076       .  S
C3483      C3484   1.418       .  A
C3484      F3485   1.358       .  S
C3489      C3490   1.402       .  A
C3489      C3494   1.405       .  A
C3489      H3496   1.083       .  S
C3490      C3491   1.394       .  A
C3491      C3492   1.386       .  A
C3491      F3498   1.359       .  S
C3492      C3493   1.422       .  A
C3492      H3497   1.074       .  S
C3493      C3494   1.423       .  A
C3494      F3495   1.358       .  S
C3499      C3500   1.419       .  A
C3499      C3504   1.400       .  A
C3499      H3506   1.081       .  S
C3500      C3501   1.420       .  A
C3501      C3502   1.390       .  A
C3501      F3508   1.349       .  S
C3502      C3503   1.399       .  A
C3502      H3507   1.083       .  S
C3503      C3504   1.406       .  A
C3509      C3510   1.417       .  A
C3509      C3514   1.387   1_655  A
C3509      H3516   1.061       .  S
C3510      C3511   1.436       .  A
C3511      C3512   1.398       .  A
C3511      F3518   1.357       .  S
C3512      C3513   1.397   1_655  A
C3512      H3517   1.083       .  S
C3513      C3514   1.399       .  A
C3519      C3520   1.419       .  A
C3519      C3524   1.393       .  A
C3519      H3526   1.083       .  S
C3520      C3521   1.422       .  A
C3521      C3522   1.398       .  A
C3521      F3528   1.354       .  S
C3522      C3523   1.400       .  A
C3522      H3527   1.084       .  S
C3523      C3524   1.401       .  A
C3524      F3525   1.358       .  S
C3529      C3530   1.414       .  A
C3529      C3534   1.387       .  A
C3529      H3536   1.083       .  S
C3530      C3531   1.421       .  A
C3531      C3532   1.405       .  A
C3531      F3538   1.354       .  S
C3532      C3533   1.401       .  A
C3532      H3537   1.083       .  S
C3533      C3534   1.401       .  A
C3534      F3535   1.358       .  S
C3539      C3540   1.402       .  A
C3539      C3544   1.404       .  A
C3539      H3546   1.083       .  S
C3540      C3541   1.398       .  A
C3541      C3542   1.389       .  A
C3541      F3548   1.358       .  S
C3542      C3543   1.419       .  A
C3542      H3547   1.080       .  S
C3543      C3544   1.419       .  A
C3544      F3545   1.357       .  S
C3549      C3550   1.400       .  A
C3549      C3554   1.406       .  A
C3549      H3556   1.083       .  S
C3550      C3551   1.398       .  A
C3551      C3552   1.390       .  A
C3551      F3558   1.359       .  S
C3552      C3553   1.416       .  A
C3552      H3557   1.079       .  S
C3553      C3554   1.421       .  A
C3554      F3555   1.357       .  S
C3559      C3560   1.422       .  A
C3559      C3564   1.392   1_655  A
C3559      H3566   1.076       .  S
C3560      C3561   1.423       .  A
C3561      C3562   1.397       .  A
C3561      F3568   1.344       .  S
C3562      C3563   1.408       .  A
C3562      H3567   1.076       .  S
C3563      C3564   1.414   1_655  A
C3569      C3570   1.422       .  A
C3569      C3574   1.387       .  A
C3569      H3576   1.078       .  S
C3570      C3571   1.420       .  A
C3571      C3572   1.403       .  A
C3571      F3578   1.357       .  S
C3572      C3573   1.401       .  A
C3572      H3577   1.083       .  S
C3573      C3574   1.391       .  A
C3574      F3575   1.358       .  S
C3579      C3580   1.391       .  A
C3579      C3584   1.390       .  A
C3579      H3586   1.085       .  S
C3580      C3581   1.397       .  A
C3581      C3582   1.406       .  A
C3581      F3588   1.357       .  S
C3582      C3583   1.423       .  A
C3582      H3587   1.081       .  S
C3583      C3584   1.431       .  A
C3584      F3585   1.352       .  S
C3589      C3590   1.416       .  A
C3589      C3594   1.393       .  A
C3589      H3596   1.080       .  S
C3590      C3591   1.423       .  A
C3591      C3592   1.412       .  A
C3591      F3598   1.357       .  S
C3592      C3593   1.402       .  A
C3592      H3597   1.083       .  S
C3593      C3594   1.401       .  A
C3594      F3595   1.359       .  S
C3599      C3600   1.402       .  A
C3599      C3604   1.402       .  A
C3599      H3606   1.083       .  S
C3600      C3601   1.403       .  A
C3601      C3602   1.399       .  A
C3601      F3608   1.358       .  S
C3602      C3603   1.416       .  A
C3602      H3607   1.079       .  S
C3603      C3604   1.419       .  A
C3604      F3605   1.357       .  S
C3609      C3610   1.418       .  A
C3609      C3614   1.399       .  A
C3609      H3616   1.077       .  S
C3610      C3611   1.418       .  A
C3611      C3612   1.399       .  A
C3611      F3618   1.357       .  S
C3612      C3613   1.406       .  A
C3612      H3617   1.083       .  S
C3613      C3614   1.404       .  A
C3614      F3615   1.358       .  S
C3619      C3620   1.401       .  A
C3619      C3624   1.398       .  A
C3619      H3626   1.084       .  S
C3620      C3621   1.399       .  A
C3621      C3622   1.393       .  A
C3621      F3628   1.358       .  S
C3622      C3623   1.419       .  A
C3622      H3627   1.083       .  S
C3623      C3624   1.422       .  A
C3624      F3625   1.354       .  S
C3629      C3630   1.418       .  A
C3629      C3634   1.390       .  A
C3629      H3636   1.081       .  S
C3630      C3631   1.417       .  A
C3631      C3632   1.406       .  A
C3631      F3638   1.357       .  S
C3632      C3633   1.404       .  A
C3632      H3637   1.083       .  S
C3633      C3634   1.398       .  A
C3634      F3635   1.358       .  S
C3639      C3640   1.412       .  A
C3639      C3644   1.395       .  A
C3639      H3646   1.083       .  S
C3640      C3641   1.425       .  A
C3641      C3642   1.395       .  A
C3641      F3648   1.356       .  S
C3642      C3643   1.404       .  A
C3642      H3647   1.081       .  S
C3643      C3644   1.412       .  A
C3649      C3650   1.405       .  A
C3649      C3654   1.392       .  A
C3649      H3656   1.081       .  S
C3650      C3651   1.411       .  A
C3651      C3652   1.395       .  A
C3651      F3658   1.356       .  S
C3652      C3653   1.414       .  A
C3652      H3657   1.083       .  S
C3653      C3654   1.421       .  A
C3654      F3655   1.353       .  S
C3659      C3660   1.395       .  A
C3659      C3664   1.391       .  A
C3659      H3666   1.084       .  S
C3660      C3661   1.405       .  A
C3661      C3662   1.402       .  A
C3662      C3663   1.413       .  A
C3662      H3667   1.079       .  S
C3663      C3664   1.423       .  A
C3664      F3665   1.356       .  S
C3669      C3670   1.418       .  A
C3669      C3674   1.388       .  A
C3669      H3676   1.081       .  S
C3670      C3671   1.426       .  A
C3671      C3672   1.404       .  A
C3671      F3678   1.353       .  S
C3672      C3673   1.399       .  A
C3673      C3674   1.397       .  A
C3674      F3675   1.358       .  S
C3679      C3680   1.398       .  A
C3679      C3684   1.398       .  A
C3679      H3686   1.083       .  S
C3680      C3681   1.402       .  A
C3681      C3682   1.399       .  A
C3681      F3688   1.358       .  S
C3682      C3683   1.415       .  A
C3682      H3687   1.078       .  S
C3683      C3684   1.421       .  A
C3684      F3685   1.357       .  S
C3689      C3690   1.393       .  A
C3689      C3694   1.397       .  A
C3689      H3696   1.084       .  S
C3690      C3691   1.391       .  A
C3691      C3692   1.394       .  A
C3691      F3698   1.358       .  S
C3692      C3693   1.421       .  A
C3692      H3697   1.082       .  S
C3693      C3694   1.432       .  A
C3694      F3695   1.354       .  S
C3699      C3700   1.417       .  A
C3699      C3704   1.399       .  A
C3699      H3706   1.079       .  S
C3700      C3701   1.423       .  A
C3701      C3702   1.394       .  A
C3701      F3708   1.359       .  S
C3702      C3703   1.402       .  A
C3702      H3707   1.083       .  S
C3703      C3704   1.406       .  A
C3704      F3705   1.358       .  S
C3709      C3710   1.415       .  A
C3709      C3714   1.397       .  A
C3709      H3716   1.083       .  S
C3710      C3711   1.422       .  A
C3711      C3712   1.400       .  A
C3711      F3718   1.355       .  S
C3712      C3713   1.401       .  A
C3712      H3717   1.083       .  S
C3713      C3714   1.404       .  A
C3714      F3715   1.358       .  S
C3719      C3720   1.400       .  A
C3719      C3724   1.391       .  A
C3719      H3726   1.083       .  S
C3720      C3721   1.406       .  A
C3721      C3722   1.404       .  A
C3721      F3728   1.357       .  S
C3722      C3723   1.413       .  A
C3722      H3727   1.081       .  S
C3723      C3724   1.421       .  A
C3724      F3725   1.357       .  S
C3729      C3730   1.416       .  A
C3729      C3734   1.388       .  A
C3729      H3736   1.080       .  S
C3730      C3731   1.419       .  A
C3731      C3732   1.406       .  A
C3731      F3738   1.355       .  S
C3732      C3733   1.403       .  A
C3733      C3734   1.398       .  A
C3734      F3735   1.358       .  S
C3739      C3740   1.397       .  A
C3739      C3744   1.397       .  A
C3739      H3746   1.084       .  S
C3740      C3741   1.401       .  A
C3741      C3742   1.406       .  A
C3741      F3748   1.357       .  S
C3742      C3743   1.417       .  A
C3742      H3747   1.081       .  S
C3743      C3744   1.422       .  A
C3744      F3745   1.357       .  S
C3749      C3750   1.416       .  A
C3749      C3754   1.405       .  A
C3749      H3756   1.083       .  S
C3750      C3751   1.427       .  A
C3751      C3752   1.395       .  A
C3751      F3758   1.356       .  S
C3752      C3753   1.397       .  A
C3752      H3757   1.084       .  S
C3753      C3754   1.405       .  A
C3754      F3755   1.357       .  S
C3759      C3760   1.413       .  A
C3759      C3764   1.398       .  A
C3759      H3766   1.079       .  S
C3760      C3761   1.421       .  A
C3761      C3762   1.390       .  A
C3761      F3768   1.358       .  S
C3762      C3763   1.397       .  A
C3762      H3767   1.083       .  S
C3763      C3764   1.407       .  A
C3769      C3770   1.411       .  A
C3769      C3774   1.397       .  A
C3769      H3776   1.075       .  S
C3770      C3771   1.422       .  A
C3771      C3772   1.394       .  A
C3771      F3778   1.358       .  S
C3772      C3773   1.403       .  A
C3772      H3777   1.080       .  S
C3773      C3774   1.414       .  A
C3774      F3775   1.357       .  S
C3779      C3780   1.405       .  A
C3779      C3784   1.399       .  A
C3779      H3786   1.083       .  S
C3780      C3781   1.406       .  A
C3781      C3782   1.400       .  A
C3781      F3788   1.358       .  S
C3782      C3783   1.418       .  A
C3782      H3787   1.080       .  S
C3783      C3784   1.416       .  A
C3784      F3785   1.356       .  S
C3789      C3790   1.401       .  A
C3789      C3794   1.403       .  A
C3789      H3796   1.083       .  S
C3790      C3791   1.398       .  A
C3791      C3792   1.392       .  A
C3791      F3798   1.358       .  S
C3792      C3793   1.418       .  A
C3792      H3797   1.079       .  S
C3793      C3794   1.419       .  A
C3794      F3795   1.357       .  S
C3799      C3800   1.402       .  A
C3799      C3804   1.398       .  A
C3799      H3806   1.084       .  S
C3800      C3801   1.399       .  A
C3801      C3802   1.393       .  A
C3801      F3808   1.358       .  S
C3802      C3803   1.418       .  A
C3802      H3807   1.083       .  S
C3803      C3804   1.421       .  A
C3804      F3805   1.354       .  S
C3809      C3810   1.407       .  A
C3809      C3814   1.394       .  A
C3809      H3816   1.080       .  S
C3810      C3811   1.410       .  A
C3811      C3812   1.391       .  A
C3811      F3818   1.356       .  S
C3812      C3813   1.414       .  A
C3812      H3817   1.083       .  S
C3813      C3814   1.419       .  A
C3814      F3815   1.352       .  S
C3819      C3820   1.419       .  A
C3819      C3824   1.398       .  A
C3819      H3826   1.079       .  S
C3820      C3821   1.415       .  A
C3821      C3822   1.397       .  A
C3821      F3828   1.357       .  S
C3822      C3823   1.406       .  A
C3822      H3827   1.083       .  S
C3823      C3824   1.403       .  A
C3824      F3825   1.358   1_655  S
C3829      C3830   1.402       .  A
C3829      C3834   1.399       .  A
C3829      H3836   1.083       .  S
C3830      C3831   1.407       .  A
C3831      C3832   1.394       .  A
C3831      F3838   1.358       .  S
C3832      C3833   1.413       .  A
C3832      H3837   1.083       .  S
C3833      C3834   1.423       .  A
C3834      F3835   1.355       .  S
C3839      C3840   1.400       .  A
C3839      C3844   1.403       .  A
C3839      H3846   1.083       .  S
C3840      C3841   1.401       .  A
C3841      C3842   1.390       .  A
C3841      F3848   1.358       .  S
C3842      C3843   1.414       .  A
C3842      H3847   1.079       .  S
C3843      C3844   1.421       .  A
C3844      F3845   1.357       .  S
C3849      C3850   1.403       .  A
C3849      C3854   1.403       .  A
C3849      H3856   1.083       .  S
C3850      C3851   1.406       .  A
C3851      C3852   1.394       .  A
C3851      F3858   1.358       .  S
C3852      C3853   1.414       .  A
C3852      H3857   1.084       .  S
C3853      C3854   1.423       .  A
C3854      F3855   1.354       .  S
C3859      C3860   1.400       .  A
C3859      C3864   1.396       .  A
C3859      H3866   1.084       .  S
C3860      C3861   1.399       .  A
C3861      C3862   1.400       .  A
C3861      F3868   1.358       .  S
C3862      C3863   1.417       .  A
C3862      H3867   1.080       .  S
C3863      C3864   1.420       .  A
C3864      F3865   1.357       .  S
C3869      C3870   1.413       .  A
C3869      C3874   1.394       .  A
C3869      H3876   1.083       .  S
C3870      C3871   1.423       .  A
C3871      C3872   1.406       .  A
C3871      F3878   1.354       .  S
C3872      C3873   1.403       .  A
C3872      H3877   1.083       .  S
C3873      C3874   1.406       .  A
C3874      F3875   1.358       .  S
C3879      C3880   1.424       .  A
C3879      C3884   1.403       .  A
C3879      H3886   1.083       .  S
C3880      C3881   1.426       .  A
C3881      C3882   1.398       .  A
C3881      F3888   1.353       .  S
C3882      C3883   1.397       .  A
C3882      H3887   1.084       .  S
C3883      C3884   1.398       .  A
C3889      C3890   1.411       .  A
C3889      C3894   1.386       .  A
C3889      H3896   1.061       .  S
C3890      C3891   1.430       .  A
C3892      H3897   1.083       .  S
C3893      C3894   1.402       .  A
C3894      F3895   1.358       .  S
C3899      C3900   1.412       .  A
C3899      C3904   1.393       .  A
C3899      H3906   1.081       .  S
C3900      C3901   1.424       .  A
C3901      C3902   1.401       .  A
C3901      F3908   1.357       .  S
C3902      C3903   1.402       .  A
C3902      H3907   1.083       .  S
C3903      C3904   1.408       .  A
C3904      F3905   1.358       .  S
C3909      C3910   1.420       .  A
C3909      C3914   1.392       .  A
C3909      H3916   1.078       .  S
C3910      C3911   1.416       .  A
C3911      C3912   1.401       .  A
C3911      F3918   1.357       .  S
C3912      C3913   1.406       .  A
C3913      C3914   1.401       .  A
C3914      F3915   1.358       .  S
C3919      C3920   1.407   1_545  A
C3919      C3924   1.396   1_545  A
C3920      C3921   1.405       .  A
C3921      C3922   1.389       .  A
C3921      F3928   1.357       .  S
C3922      C3923   1.417       .  A
C3922      H3927   1.083       .  S
C3923      C3924   1.418       .  A
C3924      F3925   1.352       .  S
C3929      C3930   1.420       .  A
C3929      C3934   1.398       .  A
C3929      H3936   1.079       .  S
C3930      C3931   1.414       .  A
C3931      C3932   1.395       .  A
C3931      F3938   1.358       .  S
C3932      C3933   1.406       .  A
C3932      H3937   1.083       .  S
C3933      C3934   1.402       .  A
C3934      F3935   1.358       .  S
C3939      C3940   1.396       .  A
C3939      C3944   1.388       .  A
C3939      H3946   1.084       .  S
C3940      C3941   1.404       .  A
C3941      C3942   1.398       .  A
C3941      F3948   1.358       .  S
C3942      C3943   1.414       .  A
C3942      H3947   1.078       .  S
C3943      C3944   1.421       .  A
C3944      F3945   1.358       .  S
C3949      C3950   1.415       .  A
C3949      C3954   1.407       .  A
C3949      H3956   1.082       .  S
C3950      C3951   1.425       .  A
C3951      C3952   1.389       .  A
C3951      F3958   1.357       .  S
C3952      C3953   1.392       .  A
C3952      H3957   1.084       .  S
C3953      C3954   1.403       .  A
C3954      F3955   1.357       .  S
C3959      C3960   1.414       .  A
C3960      C3961   1.412       .  A
C3961      C3962   1.389       .  A
C3961      F3968   1.357       .  S
C3962      C3963   1.407       .  A
C3962      H3967   1.081       .  S
C3964      F3965   1.357       .  S
C3969      C3970   1.406       .  A
C3969      C3974   1.393       .  A
C3969      H3976   1.078       .  S
C3970      C3971   1.415       .  A
C3971      C3972   1.403       .  A
C3971      F3978   1.356       .  S
C3972      C3973   1.417       .  A
C3972      H3977   1.077       .  S
C3973      C3974   1.421       .  A
C3974      F3975   1.358       .  S
C3979      C3980   1.398       .  A
C3979      C3984   1.405       .  A
C3979      H3986   1.083       .  S
C3980      C3981   1.398       .  A
C3981      C3982   1.395       .  A
C3981      F3988   1.359       .  S
C3982      C3983   1.419       .  A
C3982      H3987   1.070       .  S
C3983      C3984   1.432       .  A
C3984      F3985   1.357       .  S
C3989      C3990   1.417       .  A
C3989      C3994   1.405       .  A
C3989      H3996   1.083       .  S
C3990      C3991   1.424       .  A
C3991      C3992   1.393       .  A
C3991      F3998   1.356       .  S
C3992      C3993   1.398       .  A
C3992      H3997   1.084       .  S
C3993      C3994   1.403       .  A
C3994      F3995   1.357       .  S
C3999      C4000   1.398       .  A
C3999      C4004   1.396       .  A
C3999      H4006   1.083       .  S
C4000      C4001   1.411       .  A
C4001      C4002   1.399       .  A
C4001      F4008   1.357       .  S
C4002      C4003   1.409       .  A
C4002      H4007   1.083       .  S
C4003      C4004   1.426       .  A
C4004      F4005   1.357       .  S
C4009      C4010   1.395       .  A
C4009      C4014   1.400       .  A
C4009      H4016   1.084       .  S
C4010      C4011   1.398       .  A
C4011      C4012   1.392       .  A
C4011      F4018   1.359   1_554  S
C4012      C4013   1.416       .  A
C4012      H4017   1.064       .  S
C4013      C4014   1.435       .  A
C4014      F4015   1.356       .  S
C4019      C4020   1.420       .  A
C4019      C4024   1.397       .  A
C4020      C4021   1.423       .  A
C4021      C4022   1.394       .  A
C4021      F4028   1.351       .  S
C4022      C4023   1.400       .  A
C4022      H4027   1.082       .  S
C4023      C4024   1.406       .  A
C4029      C4030   1.400       .  A
C4029      C4034   1.400       .  A
C4029      H4036   1.083       .  S
C4030      C4031   1.398       .  A
C4031      C4032   1.384       .  A
C4031      F4038   1.359       .  S
C4032      C4033   1.419       .  A
C4032      H4037   1.077       .  S
C4033      C4034   1.423       .  A
C4034      F4035   1.358       .  S
C4039      C4040   1.424       .  A
C4039      C4044   1.402       .  A
C4039      H4046   1.073       .  S
C4040      C4041   1.425       .  A
C4041      C4042   1.395       .  A
C4041      F4048   1.359       .  S
C4042      C4043   1.402       .  A
C4042      H4047   1.083       .  S
C4043      C4044   1.401       .  A
C4044      F4045   1.358       .  S
C4049      C4050   1.413       .  A
C4049      C4054   1.396       .  A
C4049      H4056   1.081       .  S
C4050      C4051   1.419       .  A
C4051      C4052   1.400       .  A
C4051      F4058   1.357       .  S
C4052      C4053   1.400       .  A
C4052      H4057   1.083       .  S
C4053      C4054   1.405       .  A
C4054      F4055   1.358       .  S
C4059      C4064   1.404       .  A
C4059      H4066   1.080       .  S
C4060      C4061   1.420       .  A
C4061      C4062   1.389       .  A
C4061      F4068   1.356       .  S
C4062      C4063   1.399       .  A
C4062      H4067   1.084       .  S
C4064      F4065   1.357       .  S
C4069      C4070   1.413       .  A
C4069      C4074   1.392       .  A
C4069      H4076   1.080       .  S
C4071      C4072   1.393       .  A
C4071      F4078   1.357       .  S
C4072      H4077   1.082       .  S
C4073      C4074   1.408       .  A
C4074      F4075   1.358       .  S
C4079      C4080   1.416       .  A
C4079      C4084   1.400       .  A
C4079      H4086   1.080       .  S
C4080      C4081   1.415       .  A
C4081      C4082   1.398       .  A
C4081      F4088   1.357       .  S
C4082      C4083   1.406       .  A
C4082      H4087   1.083       .  S
C4083      C4084   1.406       .  A
C4084      F4085   1.357       .  S
C4089      C4090   1.425       .  A
C4089      C4094   1.403       .  A
C4089      H4096   1.083       .  S
C4090      C4091   1.432       .  A
C4091      C4092   1.396       .  A
C4091      F4098   1.350       .  S
C4092      C4093   1.392       .  A
C4092      H4097   1.085   1_554  S
C4093      C4094   1.397       .  A
C4094      F4095   1.357       .  S
C4099      C4100   1.402       .  A
C4099      C4104   1.404       .  A
C4099      H4106   1.083       .  S
C4100      C4101   1.396       .  A
C4101      C4102   1.388       .  A
C4101      F4108   1.359       .  S
C4102      C4103   1.419       .  A
C4102      H4107   1.073       .  S
C4103      C4104   1.423       .  A
C4104      F4105   1.358       .  S
C4109      C4110   1.418       .  A
C4109      C4114   1.397       .  A
C4109      H4116   1.070       .  S
C4110      C4111   1.431       .  A
C4111      C4112   1.399       .  A
C4111      F4118   1.357       .  S
C4112      C4113   1.401       .  A
C4112      H4117   1.083       .  S
C4113      C4114   1.405       .  A
C4114      F4115   1.358       .  S
C4119      C4120   1.419       .  A
C4119      C4124   1.404       .  A
C4119      H4126   1.078       .  S
C4120      C4121   1.421       .  A
C4121      C4122   1.395       .  A
C4121      F4128   1.358       .  S
C4122      C4123   1.404       .  A
C4122      H4127   1.083       .  S
C4123      C4124   1.405       .  A
C4124      F4125   1.357       .  S
