geometry optimzed in LAMMPS
_audit_creation_date              2020-11-30 
_audit_creation_method            'lammps2cif' 
_symmetry_space_group_name_H-M    'P1' 
_symmetry_Int_Tables_number       1 
_symmetry_cell_setting            triclinic 
loop_ 
_symmetry_equiv_pos_as_xyz 
  x,y,z 
_cell_length_a                    29.6419813 
_cell_length_b                    29.648180358112395 
_cell_length_c                    29.716691539492093 
_cell_angle_alpha                 90.11687241025518 
_cell_angle_beta                  89.85328300370065 
_cell_angle_gamma                 89.93069740252284 
loop_ 
_atom_site_label 
_atom_site_type_symbol 
_atom_site_fract_x 
_atom_site_fract_y 
_atom_site_fract_z 
_atom_site_charge 
O1          O  0.95602199  0.04339566  0.44248113    -0.88100
C2          C  0.93768483  0.02643373  0.57831331     0.87900
Mg3        Mg  0.96505824  0.98800879  0.39643875     1.58100
O4          O  0.04475159  0.06719499  0.54669068    -0.87800
O5          O  0.98894487  0.10597500  0.46365249    -0.75200
C6          C  0.11878727  0.85983661  0.49545376     0.93000
O7          O  0.90588770  0.96095965  0.49303146    -0.75000
O8          O  0.08512296  0.85580020  0.46925381    -0.82500
Mg9        Mg  0.89951898  0.03779990  0.48812312     1.58000
C10         C  0.15918470  0.00684916  0.60454714     0.92900
O11         O  0.88221321  0.11274787  0.48545293    -0.80800
H12         H  0.08339279  0.11300945  0.51596135    -0.06100
C13         C  0.03428357  0.93180642  0.56799943     0.87800
O14         O  0.04200525  0.99638506  0.39753577    -0.75300
O15         O  0.94520605  0.04771480  0.54342179    -0.88000
O16         O  0.12353027  0.02825612  0.61570835    -0.80800
C17         C  0.00909726  0.11242934  0.65193983     0.93000
C18         C  0.88813540  0.14855944  0.50840656     0.92900
Mg19       Mg  0.11062929  0.97134745  0.51243923     1.58000
O20         O  0.12638306  0.89644477  0.51652844    -0.80800
O21         O  0.10383632  0.04834403  0.50648761    -0.75000
O22         O  0.98407831  0.12036358  0.61788303    -0.80800
O23         O  0.85077491  0.02762000  0.43008638    -0.82500
O24         O  0.02468992  0.88601011  0.38427846    -0.80900
C25         C  0.07760911  0.07783348  0.52332867     0.87300
O26         O  0.06504020  0.96075724  0.45746732    -0.88000
O27         O  0.05465488  0.96683880  0.55834212    -0.88100
O28         O  0.01923715  0.90538587  0.53788719    -0.75200
Mg29       Mg  0.98513733  0.10838311  0.54106883     1.58000
O30         O  0.03752172  0.08034043  0.65183540    -0.82500
H31         H  0.98075033  0.08776841  0.39830879    -0.06300
O32         O  0.96547559  0.94295673  0.45346785    -0.87800
H33         H  0.92603789  0.89645826  0.48206013    -0.06100
H34         H  0.10794849  0.98951122  0.41426833    -0.06300
C35         C  0.93211444  0.93182861  0.47576353     0.87300
C36         C  0.97499886  0.07930887  0.43318375     0.87900
C37         C  0.07332953  0.98193105  0.42269822     0.87900
H38         H  0.02797128  0.92411793  0.60297504    -0.06300
O39         O  0.96954381  0.01313676  0.60351010    -0.75300
Mg40       Mg  0.02362615  0.90092472  0.46075492     1.58000
H41         H  0.90328826  0.01810014  0.58708051    -0.06300
C42         C  0.85237914  0.00302120  0.39500581     0.92900
O43         O  0.97489401  0.92925857  0.34850616    -0.82500
C44         C  0.00113605  0.89527014  0.34952031     0.93000
O45         O  0.92166797  0.15260994  0.53488672    -0.82500
Mg46       Mg  0.04664274  0.02220283  0.60387334     1.58200
O47         O  0.88858944  0.98256265  0.38377674    -0.80800
O48         O  0.16007704  0.98168348  0.56983211    -0.82500
O49         O  0.00076520  0.53382370  0.08181693    -0.88100
C50         C  0.89183428  0.51238282  0.00062892     0.87900
Mg51       Mg  0.05638931  0.57586613  0.06286643     1.58100
O52         O  0.96843216  0.42195885  0.00630309    -0.87800
O53         O  0.98877996  0.46411369  0.10259694    -0.75200
C54         C  0.11211841  0.51138081  0.85549184     0.93000
O55         O  0.95657265  0.60197267  0.01065345    -0.75000
O56         O  0.11292388  0.54627932  0.88053378    -0.82500
Mg57       Mg  0.93428305  0.56232274  0.07330088     1.58000
C58         C  0.00806780  0.35819144  0.88698726     0.92900
O59         O  0.90507638  0.52902593  0.13694841    -0.80800
H60         H  0.00047524  0.37448234  0.04155629    -0.06100
C61         C  0.98528972  0.50539896  0.89783862     0.87800
O62         O  0.09805398  0.51431910  0.04074133    -0.75300
O63         O  0.91643134  0.50489690  0.03326369    -0.88000
O64         O  0.97275069  0.36789217  0.90947985    -0.80800
C65         C  0.85699937  0.38237668  0.99599719     0.93000
C66         C  0.88476010  0.49331851  0.14957393     0.92900
Mg67       Mg  0.06031090  0.44373198  0.93033781     1.58000
O68         O  0.08963818  0.47655662  0.86676635    -0.80800
O69         O  0.03834094  0.40283403  0.99223559    -0.75000
O70         O  0.86415688  0.40639359  0.03093294    -0.80800
O71         O  0.95215083  0.62418492  0.11518546    -0.82500
O72         O  0.13205441  0.59698827  0.97393726    -0.80900
C73         C  0.00187092  0.39841347  0.01428573     0.87300
O74         O  0.07828789  0.50021545  0.97128618    -0.88000
O75         O  0.99391956  0.47279686  0.92216884    -0.88100
O76         O  0.00730279  0.54198728  0.90074890    -0.75200
Mg77       Mg  0.92700216  0.43948558  0.06327751     1.58000
O78         O  0.88150797  0.38451922  0.96095174    -0.82500
H79         H  0.03760974  0.50373037  0.12930912    -0.06300
O80         O  0.02693319  0.58363091  0.99711155    -0.87800
H81         H  0.99410732  0.62972717  0.96070071    -0.06100
H82         H  0.12637572  0.46495702  0.00258617    -0.06300
C83         C  0.99306217  0.60639876  0.98857606     0.87300
C84         C  0.00994878  0.50115905  0.10588514     0.87900
C85         C  0.10222694  0.49226643  0.00431145     0.87900
H86         H  0.95765569  0.50311450  0.87435076    -0.06300
O87         O  0.89607553  0.49065091  0.96402395    -0.75300
Mg88       Mg  0.06911842  0.56553582  0.94092454     1.58000
H89         H  0.86703420  0.53907602  0.00283087    -0.06300
C90         C  0.98671311  0.64962719  0.11438818     0.92900
O91         O  0.11521891  0.62011199  0.04310770    -0.82500
C92         C  0.14086042  0.62063948  0.00874732     0.93000
O93         O  0.88459973  0.45795542  0.12503209    -0.82500
Mg94       Mg  0.93856123  0.43012511  0.94075181     1.58200
O95         O  0.02215589  0.63878386  0.09249542    -0.80800
O96         O  0.04234959  0.38387438  0.88734031    -0.82500
O97         O  0.43044925  0.53234411  0.45120527    -0.88100
C98         C  0.56039411  0.57219734  0.46883482     0.87900
Mg99       Mg  0.38583470  0.52186573  0.50777937     1.58100
O100        O  0.54600549  0.45785160  0.44027666    -0.87800
O101        O  0.45739372  0.49561554  0.39321313    -0.75200
C102        C  0.49650271  0.39373115  0.65390015     0.93000
O103        O  0.47124223  0.59587351  0.52798744    -0.75000
O104        O  0.46744152  0.42539547  0.65238068    -0.82500
Mg105      Mg  0.46700475  0.59546278  0.45045501     1.58000
C106        C  0.61935578  0.35981422  0.50907313     0.92900
O107        O  0.46499465  0.60575271  0.37237541    -0.80800
H108        H  0.52305800  0.41033503  0.39844419    -0.06100
C109        C  0.56235963  0.48170228  0.57538170     0.87800
O110        O  0.39780703  0.44523222  0.50629467    -0.75300
O111        O  0.52867937  0.55793082  0.44596695    -0.88000
O112        O  0.62360765  0.39598748  0.48644767    -0.80800
C113        C  0.64759314  0.50373887  0.39255485     0.93000
C114        C  0.49013856  0.59662063  0.33846698     0.92900
Mg115      Mg  0.52009151  0.39470372  0.54201064     1.58000
O116        O  0.52154260  0.38429545  0.61998638    -0.80800
O117        O  0.51607900  0.39480347  0.46455288    -0.75000
O118        O  0.61023625  0.52081155  0.37958612    -0.80800
O119        O  0.40225302  0.63631421  0.45701762    -0.82500
O120        O  0.37763537  0.47036173  0.61439287    -0.80900
C121        C  0.52867978  0.42065333  0.43283661     0.87300
O122        O  0.45811906  0.43246738  0.54681452    -0.88000
O123        O  0.55605923  0.45807966  0.54174831    -0.88100
O124        O  0.52980975  0.49480302  0.59991683    -0.75200
Mg125      Mg  0.53364364  0.51005872  0.39154422     1.58000
O126        O  0.65010343  0.48098435  0.42866968    -0.82500
H127        H  0.39092765  0.49708562  0.40967728    -0.06300
O128        O  0.44169546  0.53281477  0.55256985    -0.87800
H129        H  0.46445198  0.58061899  0.59422416    -0.06100
H130        H  0.42214704  0.38259901  0.51927357    -0.06300
C131        C  0.45886494  0.57009995  0.55985152     0.87300
C132        C  0.42457938  0.50836220  0.41769703     0.87900
C133        C  0.42583432  0.41848768  0.52453037     0.87900
H134        H  0.59620163  0.49253502  0.58334285    -0.06300
O135        O  0.58814691  0.54573155  0.48778184    -0.75300
Mg136      Mg  0.45379596  0.48062334  0.60136174     1.58000
H137        H  0.56363801  0.60812882  0.47416798    -0.06300
C138        C  0.37032816  0.63180198  0.48541959     0.92900
O139        O  0.33780264  0.51187015  0.56687054    -0.82500
C140        C  0.34061885  0.48907556  0.60296638     0.93000
O141        O  0.51956145  0.56526469  0.34025453    -0.82500
Mg142      Mg  0.60108480  0.46943466  0.48620717     1.58200
O143        O  0.36516377  0.59587634  0.50817313    -0.80800
O144        O  0.58595260  0.35403085  0.53558219    -0.82500
O145        O  0.56685348  0.96304232  0.04998489    -0.88100
C146        C  0.43000821  0.96441076  0.06637550     0.87900
Mg147      Mg  0.60341725  0.02568800  0.04502695     1.58100
O148        O  0.46511560  0.93647098  0.95653342    -0.87800
O149        O  0.55348068  0.90354316  0.00845950    -0.75200
C150        C  0.49330384  0.15110586  0.89322844     0.93000
O151        O  0.50644715  0.03445946  0.10496224    -0.75000
O152        O  0.51600784  0.15511656  0.92944835    -0.82500
Mg153      Mg  0.52037878  0.95780818  0.10589799     1.58000
C154        C  0.39865005  0.99426591  0.84568097     0.92900
O155        O  0.52965341  0.88039482  0.11835824    -0.80800
H156        H  0.49852130  0.89547156  0.91464279    -0.06100
C157        C  0.42521772  0.06654439  0.97352965     0.87800
O158        O  0.60292132  0.02182173  0.96749951    -0.75300
O159        O  0.46678142  0.94630688  0.05835149    -0.88000
O160        O  0.38937485  0.97125830  0.88080490    -0.80800
C161        C  0.36755770  0.87377608  0.98944266     0.93000
C162        C  0.51139032  0.84364351  0.10504225     0.92900
Mg163      Mg  0.48668025  0.03750264  0.89560417     1.58000
O164        O  0.47620281  0.11330759  0.88204375    -0.80800
O165        O  0.50099778  0.96161330  0.89752807    -0.75000
O166        O  0.40345505  0.86945132  0.01247855    -0.80800
O167        O  0.57755677  0.97090757  0.15524106    -0.82500
O168        O  0.60179803  0.12859425  0.98787126    -0.80900
C169        C  0.48804057  0.92951719  0.92250490     0.87300
O170        O  0.53924650  0.05076351  0.94371553    -0.88000
O171        O  0.43939181  0.03417963  0.95135282    -0.88100
O172        O  0.45180625  0.09469520  0.99166919    -0.75200
Mg173      Mg  0.47703387  0.89134876  0.01165559     1.58000
O174        O  0.36152653  0.90755888  0.96378263    -0.82500
H175        H  0.61627483  0.92787845  0.02036429    -0.06300
O176        O  0.53992192  0.06162265  0.04528817    -0.87800
H177        H  0.50638751  0.10094909  0.08868662    -0.06100
H178        H  0.58695960  0.02856524  0.90146573    -0.06300
C179        C  0.51747282  0.06735610  0.07990243     0.87300
C180        C  0.58051486  0.93128495  0.02663723     0.87900
C181        C  0.57668575  0.03398763  0.93597436     0.87900
H182        H  0.38931165  0.07003037  0.97899393    -0.06300
O183        O  0.40376948  0.97717627  0.03508209    -0.75300
Mg184      Mg  0.52809192  0.10678162  0.98885255     1.58000
H185        H  0.42039894  0.97054487  0.10093379    -0.06300
C186        C  0.60817304  0.00101166  0.15634450     0.92900
O187        O  0.64243682  0.09194354  0.03918710    -0.82500
C188        C  0.63721369  0.12441088  0.01161740     0.93000
O189        O  0.48878699  0.84210804  0.06878131    -0.82500
Mg190      Mg  0.40186922  0.97281923  0.95761412     1.58200
O191        O  0.61498959  0.02715640  0.12275269    -0.80800
O192        O  0.43105084  0.02245868  0.84489267    -0.82500
C193        C  0.52790195  0.65397417  0.23021042    -0.01800
C194        C  0.49722797  0.69016046  0.22675197     0.06800
C195        C  0.45986723  0.69123397  0.25589284    -0.07700
C196        C  0.45452652  0.65900369  0.29015057     0.04300
C197        C  0.48804103  0.62550627  0.29697865    -0.15000
C198        C  0.52343987  0.62251922  0.26523886    -0.08300
C199        C  0.50469285  0.72857575  0.19498046     0.05200
C200        C  0.50014179  0.72205814  0.14842919    -0.09400
C201        C  0.50416938  0.75836133  0.11820738     0.00200
C202        C  0.51340159  0.80253378  0.13440107     0.00100
C203        C  0.52001658  0.80827741  0.18096844    -0.13000
C204        C  0.51539041  0.77209514  0.21104912     0.00500
C205        C  0.49840052  0.74904760  0.07085733     0.39800
C206        C  0.52116470  0.78055269  0.25855683     0.36500
C207        C  0.56521813  0.64925352  0.19925870     0.36200
C208        C  0.41392741  0.66097007  0.31700679     0.36900
N209        N  0.49364998  0.74147919  0.03294002    -0.43900
N210        N  0.52557906  0.78719580  0.29667763    -0.44300
N211        N  0.38095378  0.66243073  0.33789714    -0.41700
N212        N  0.59495199  0.64498406  0.17429476    -0.43100
H213        H  0.54895559  0.59652518  0.26863881     0.13100
H214        H  0.43507710  0.71792194  0.25226124     0.09600
H215        H  0.49236187  0.68864515  0.13574309     0.10600
H216        H  0.52698911  0.84158966  0.19434479     0.16400
C217        C  0.45745901  0.33111413  0.75851179    -0.01800
C218        C  0.49373051  0.30156377  0.76676560     0.06800
C219        C  0.53313493  0.30567642  0.74081878    -0.07700
C220        C  0.53605308  0.33724668  0.70567968     0.04300
C221        C  0.49850613  0.36487545  0.69517284    -0.15000
C222        C  0.45998101  0.36218289  0.72300234    -0.08300
C223        C  0.49059088  0.26481159  0.80084876     0.05200
C224        C  0.47030095  0.22398331  0.78863100    -0.09400
C225        C  0.46942792  0.18709491  0.81820719     0.00200
C226        C  0.48889264  0.19071346  0.86186675     0.00100
C227        C  0.50799076  0.23252827  0.87424378    -0.13000
C228        C  0.50913295  0.26912899  0.84420199     0.00500
C229        C  0.44983451  0.14575407  0.80146858     0.39800
C230        C  0.53014709  0.31071019  0.85818652     0.36500
C231        C  0.41722309  0.33003223  0.78595484     0.36200
C232        C  0.57842397  0.34141388  0.68201949     0.36900
N233        N  0.43428696  0.11275596  0.78759515    -0.43900
N234        N  0.54698559  0.34414373  0.86916927    -0.44300
N235        N  0.61260196  0.34513084  0.66349030    -0.41700
N236        N  0.38505367  0.32955221  0.80809585    -0.43100
H237        H  0.43097560  0.38339857  0.71621015     0.13100
H238        H  0.56157981  0.28375677  0.74778212     0.09600
H239        H  0.45608528  0.22055012  0.75518852     0.10600
H240        H  0.52318737  0.23649875  0.90715818     0.16400
C241        C  0.74634708  0.31892379  0.99127144    -0.01800
C242        C  0.76038505  0.27529437  0.00438089     0.06800
C243        C  0.80598970  0.26745956  0.01378542    -0.07700
C244        C  0.83752428  0.30222929  0.01052628     0.04300
C245        C  0.82343028  0.34606246  0.99869003    -0.15000
C246        C  0.77789511  0.35418793  0.98906205    -0.08300
C247        C  0.72877047  0.23662343  0.00683571     0.05200
C248        C  0.70996360  0.21993020  0.96694602    -0.09400
C249        C  0.68135519  0.18241804  0.96750118     0.00200
C250        C  0.67159327  0.16047280  0.00861638     0.00100
C251        C  0.69127181  0.17668073  0.04843476    -0.13000
C252        C  0.71930273  0.21470953  0.04789924     0.00500
C253        C  0.66306199  0.16673920  0.92527822     0.39800
C254        C  0.73635423  0.23186043  0.09007343     0.36500
C255        C  0.69991650  0.32814383  0.97997403     0.36200
C256        C  0.88448612  0.29207478  0.01875565     0.36900
N257        N  0.64832335  0.15419755  0.89147466    -0.43900
N258        N  0.74974184  0.24577452  0.12390951    -0.44300
N259        N  0.92219781  0.28411978  0.02491008    -0.41700
N260        N  0.66274469  0.33541642  0.97060333    -0.43100
H261        H  0.76716593  0.38776724  0.97939524     0.13100
H262        H  0.81706056  0.23382688  0.02295288     0.09600
H263        H  0.71783722  0.23622308  0.93523442     0.10600
H264        H  0.68324027  0.16077509  0.08029389     0.16400
C265        C  0.32060186  0.75707870  0.01076718    -0.01800
C266        C  0.27679382  0.75982170  0.99312683     0.06800
C267        C  0.26209000  0.80038362  0.97377127    -0.07700
C268        C  0.29037728  0.83836577  0.97228646     0.04300
C269        C  0.33426188  0.83607368  0.99107258    -0.15000
C270        C  0.34857906  0.79488434  0.01000308    -0.08300
C271        C  0.24499898  0.72152538  0.99727356     0.05200
C272        C  0.22552297  0.71290273  0.03933575    -0.09400
C273        C  0.19349416  0.67866156  0.04481085     0.00200
C274        C  0.18008174  0.65222088  0.00726670     0.00100
C275        C  0.20182510  0.65960319  0.96562725    -0.13000
C276        C  0.23390923  0.69387096  0.96043033     0.00500
C277        C  0.17502545  0.67220982  0.08935170     0.39800
C278        C  0.25493259  0.70008686  0.91700889     0.36500
C279        C  0.33809240  0.71538664  0.02875817     0.36200
C280        C  0.27307821  0.87889604  0.95167567     0.36900
N281        N  0.16048356  0.66734098  0.12519575    -0.43900
N282        N  0.27181794  0.70479474  0.88218089    -0.44300
N283        N  0.25896838  0.91117157  0.93494050    -0.41700
N284        N  0.35244623  0.68198050  0.04284919    -0.43100
H285        H  0.38232317  0.79158773  0.02362865     0.13100
H286        H  0.22821961  0.80244329  0.96019814     0.09600
H287        H  0.23489872  0.73366509  0.06793469     0.10600
H288        H  0.19277560  0.63959698  0.93643970     0.16400
C289        C  0.27436019  0.46828380  0.71064163    -0.01800
C290        C  0.23405863  0.49232120  0.70301843     0.06800
C291        C  0.22673183  0.51167680  0.66069383    -0.07700
C292        C  0.25936041  0.50857172  0.62643709     0.04300
C293        C  0.30126432  0.48680450  0.63476067    -0.15000
C294        C  0.30742247  0.46591797  0.67691739    -0.08300
C295        C  0.19959061  0.49810020  0.73912635     0.05200
C296        C  0.19437670  0.54038988  0.75977954    -0.09400
C297        C  0.16484730  0.54636971  0.79639676     0.00200
C298        C  0.13992267  0.50920842  0.81333490     0.00100
C299        C  0.14384841  0.46741098  0.79079840    -0.13000
C300        C  0.17308464  0.46174669  0.75410435     0.00500
C301        C  0.16111985  0.59100783  0.81560067     0.39800
C302        C  0.17544450  0.41825549  0.73224697     0.36500
C303        C  0.28306410  0.44668306  0.75328325     0.36200
C304        C  0.24836070  0.52792254  0.58329324     0.36900
N305        N  0.15805298  0.62684839  0.83083330    -0.43900
N306        N  0.17738637  0.38350764  0.71453627    -0.44300
N307        N  0.23912701  0.54317200  0.54869273    -0.41700
N308        N  0.28989267  0.42906707  0.78731399    -0.43100
H309        H  0.33875534  0.44856716  0.68427843     0.13100
H310        H  0.19529800  0.52932683  0.65442594     0.09600
H311        H  0.21420157  0.56867056  0.74777635     0.10600
H312        H  0.12477553  0.43846803  0.80236318     0.16400
C313        C  0.80197409  0.45744071  0.24082451    -0.01800
C314        C  0.79683409  0.49745822  0.26593118     0.06800
C315        C  0.82495247  0.53414281  0.25670250    -0.07700
C316        C  0.85616485  0.53252107  0.22118247     0.04300
C317        C  0.85834480  0.49395416  0.19267960    -0.15000
C318        C  0.83198732  0.45611543  0.20423860    -0.08300
C319        C  0.75985944  0.50284863  0.29937151     0.05200
C320        C  0.76755402  0.49301248  0.34478876    -0.09400
C321        C  0.73235677  0.49548657  0.37649870     0.00200
C322        C  0.68810784  0.50756322  0.36262881     0.00100
C323        C  0.68148197  0.51962831  0.31730033    -0.13000
C324        C  0.71671570  0.51736290  0.28591179     0.00500
C325        C  0.74307709  0.48583887  0.42286300     0.39800
C326        C  0.70759054  0.52926778  0.23971989     0.36500
C327        C  0.77657496  0.41746400  0.25201932     0.36200
C328        C  0.88531227  0.57107958  0.21535130     0.36900
N329        N  0.75204400  0.47828533  0.45997864    -0.43900
N330        N  0.70024645  0.53890335  0.20273840    -0.44300
N331        N  0.90889458  0.60187921  0.21115706    -0.41700
N332        N  0.75665481  0.38529094  0.26148970    -0.43100
H333        H  0.83393554  0.42562534  0.18412284     0.13100
H334        H  0.82186566  0.56454541  0.27687452     0.09600
H335        H  0.80104930  0.48283125  0.35535989     0.10600
H336        H  0.64821481  0.52938842  0.30571923     0.16400
C337        C  0.78252608  0.20878131  0.46892001    -0.01800
C338        C  0.77599984  0.24180305  0.50233337     0.06800
C339        C  0.80856896  0.24706778  0.53606723    -0.07700
C340        C  0.84677586  0.21898926  0.53771814     0.04300
C341        C  0.85267855  0.18440864  0.50513106    -0.15000
C342        C  0.82045194  0.18069977  0.47044062    -0.08300
C343        C  0.73509534  0.27081221  0.50273819     0.05200
C344        C  0.69977880  0.26100397  0.53265689    -0.09400
C345        C  0.66066318  0.28783334  0.53422485     0.00200
C346        C  0.65664026  0.32581856  0.50553204     0.00100
C347        C  0.69185951  0.33429157  0.47458777    -0.13000
C348        C  0.73069439  0.30749799  0.47317962     0.00500
C349        C  0.62586232  0.27553642  0.56594640     0.39800
C350        C  0.76625172  0.31921620  0.44202414     0.36500
C351        C  0.74987791  0.20207024  0.43356014     0.36200
C352        C  0.87813744  0.22586953  0.57411278     0.36900
N353        N  0.59805690  0.26525123  0.59132809    -0.43900
N354        N  0.79468838  0.32884296  0.41709171    -0.44300
N355        N  0.90302380  0.23196606  0.60341942    -0.41700
N356        N  0.72368847  0.19667765  0.40525168    -0.43100
H357        H  0.82407055  0.15484806  0.44481771     0.13100
H358        H  0.80376901  0.27288131  0.56155837     0.09600
H359        H  0.70291292  0.23228256  0.55500997     0.10600
H360        H  0.68984181  0.36281447  0.45188613     0.16400
C361        C  0.22924365  0.80236996  0.52276267    -0.01800
C362        C  0.22541973  0.76111724  0.49974526     0.06800
C363        C  0.18472535  0.75009630  0.47846495    -0.07700
C364        C  0.14846639  0.78048655  0.47809955     0.04300
C365        C  0.15272565  0.82295108  0.49971163    -0.15000
C366        C  0.19305908  0.83252053  0.52298041    -0.08300
C367        C  0.26410621  0.72972878  0.49620983     0.05200
C368        C  0.27877898  0.70701099  0.53477860    -0.09400
C369        C  0.31452750  0.67624416  0.53245074     0.00200
C370        C  0.33634727  0.66800378  0.49079403     0.00100
C371        C  0.32264673  0.69220116  0.45261794    -0.13000
C372        C  0.28661908  0.72264984  0.45496517     0.00500
C373        C  0.32845462  0.65412551  0.57342055     0.39800
C374        C  0.27318950  0.74621439  0.41467037     0.36500
C375        C  0.27091054  0.81572961  0.54407393     0.36200
C376        C  0.10807799  0.76719929  0.45448762     0.36900
N377        N  0.33963697  0.63639636  0.60622193    -0.43900
N378        N  0.26224684  0.76511198  0.38245095    -0.44300
N379        N  0.07587359  0.75630869  0.43540725    -0.41700
N380        N  0.30433398  0.82662740  0.56092104    -0.43100
H381        H  0.19743268  0.86463737  0.53993368     0.13100
H382        H  0.18172188  0.71797053  0.46119182     0.09600
H383        H  0.26187713  0.71300789  0.56665617     0.10600
H384        H  0.33903060  0.68615929  0.42052237     0.16400
C385        C  0.26528600  0.96789089  0.66452242    -0.01800
C386        C  0.27074840  0.00092990  0.69820999     0.06800
C387        C  0.24150712  0.03820671  0.69883167    -0.07700
C388        C  0.20586789  0.04192743  0.66805401     0.04300
C389        C  0.19963501  0.00834267  0.63457452    -0.15000
C390        C  0.23057882  0.97219429  0.63276738    -0.08300
C391        C  0.30412027  0.99565492  0.73536479     0.05200
C392        C  0.35064437  0.99754995  0.72624560    -0.09400
C393        C  0.38243933  0.99538062  0.76129300     0.00200
C394        C  0.36773220  0.99106327  0.80640384     0.00100
C395        C  0.32124865  0.98719649  0.81501345    -0.13000
C396        C  0.28963533  0.98962772  0.78019760     0.00500
C397        C  0.42981550  0.99639074  0.75001122     0.39800
C398        C  0.24232583  0.98593527  0.79132595     0.36500
C399        C  0.29247865  0.92746190  0.66404640     0.36200
C400        C  0.17577443  0.07999558  0.67280145     0.36900
N401        N  0.46779409  0.99684551  0.74089079    -0.43900
N402        N  0.20438126  0.98306443  0.80009896    -0.44300
N403        N  0.15165100  0.11043015  0.67714233    -0.41700
N404        N  0.31385324  0.89477333  0.66387991    -0.43100
H405        H  0.22617352  0.94561111  0.60804942     0.13100
H406        H  0.24557331  0.06374050  0.72470525     0.09600
H407        H  0.36207585  0.00143088  0.69178001     0.10600
H408        H  0.30932750  0.98382905  0.84939167     0.16400
C409        C  0.78278354  0.97743736  0.29072071    -0.01800
C410        C  0.74204407  0.00038376  0.29948972     0.06800
C411        C  0.73593684  0.02132185  0.34138595    -0.07700
C412        C  0.77038954  0.02135606  0.37379336     0.04300
C413        C  0.81230335  0.99990511  0.36446040    -0.15000
C414        C  0.81727411  0.97737288  0.32288503    -0.08300
C415        C  0.70594685  0.00367553  0.26484971     0.05200
C416        C  0.66700432  0.97732460  0.26916658    -0.09400
C417        C  0.63365423  0.97724885  0.23561538     0.00200
C418        C  0.63902235  0.00409332  0.19632027     0.00100
C419        C  0.67738792  0.03208258  0.19350036    -0.13000
C420        C  0.71049781  0.03205432  0.22715766     0.00500
C421        C  0.59473985  0.94888842  0.24278173     0.39800
C422        C  0.74909235  0.06133890  0.22226997     0.36500
C423        C  0.78997552  0.95367368  0.24883816     0.36200
C424        C  0.76152363  0.04418796  0.41587299     0.36900
N425        N  0.56365967  0.92609249  0.24889830    -0.43900
N426        N  0.77999394  0.08485911  0.21849054    -0.44300
N427        N  0.75433612  0.06250439  0.44957616    -0.41700
N428        N  0.79577985  0.93448241  0.21536780    -0.43100
H429        H  0.84864991  0.96032689  0.31478539     0.13100
H430        H  0.70437751  0.03852940  0.34842756     0.09600
H431        H  0.66310494  0.95597617  0.29851837     0.10600
H432        H  0.68238515  0.05335122  0.16428358     0.16400
C433        C  0.00951036  0.78499395  0.28558786    -0.01800
C434        C  0.99643514  0.79732023  0.24172045     0.06800
C435        C  0.98595324  0.84252934  0.23270208    -0.07700
C436        C  0.98847541  0.87546317  0.26666408     0.04300
C437        C  0.00187049  0.86322535  0.31077509    -0.15000
C438        C  0.01259665  0.81779483  0.31934090    -0.08300
C439        C  0.99417782  0.76325249  0.20499993     0.05200
C440        C  0.95208156  0.75012756  0.18789775    -0.09400
C441        C  0.94858331  0.71448421  0.15684801     0.00200
C442        C  0.98789591  0.69135729  0.14240206     0.00100
C443        C  0.03011666  0.70658901  0.15776862    -0.13000
C444        C  0.03349452  0.74200801  0.18869998     0.00500
C445        C  0.90440620  0.70283710  0.14014298     0.39800
C446        C  0.07771371  0.75546325  0.20395463     0.36500
C447        C  0.01835642  0.73851358  0.29714910     0.36200
C448        C  0.97779167  0.92147643  0.25493396     0.36900
N449        N  0.86896647  0.69371352  0.12666392    -0.43900
N450        N  0.11309944  0.76619803  0.21633092    -0.44300
N451        N  0.96917790  0.95832629  0.24543075    -0.41700
N452        N  0.02531286  0.70124006  0.30633441    -0.43100
H453        H  0.02195176  0.80738324  0.35302345     0.13100
H454        H  0.97598860  0.85211544  0.19894879     0.09600
H455        H  0.92179724  0.76696060  0.19979395     0.10600
H456        H  0.06075819  0.68968911  0.14693944     0.16400
C457        C  0.98276086  0.21760944  0.71921593    -0.01800
C458        C  0.00792844  0.21109306  0.75869186     0.06800
C459        C  0.03142955  0.17061785  0.76489624    -0.07700
C460        C  0.03092030  0.13683835  0.73181335     0.04300
C461        C  0.00677475  0.14380212  0.69115599    -0.15000
C462        C  0.98237437  0.18422415  0.68605377    -0.08300
C463        C  0.00989079  0.24635644  0.79382439     0.05200
C464        C  0.97267410  0.25229384  0.82222399    -0.09400
C465        C  0.97153618  0.28734031  0.85382444     0.00200
C466        C  0.00870890  0.31734410  0.85755576     0.00100
C467        C  0.04650932  0.31017322  0.82948522    -0.13000
C468        C  0.04718949  0.27534329  0.79767364     0.00500
C469        C  0.93110329  0.29180270  0.88068636     0.39800
C470        C  0.08560871  0.27125961  0.76793126     0.36500
C471        C  0.95811707  0.25889450  0.71137621     0.36200
C472        C  0.05526452  0.09569639  0.74113722     0.36900
N473        N  0.89838687  0.29503040  0.90179231    -0.43900
N474        N  0.11631153  0.26818883  0.74397907    -0.44300
N475        N  0.07481777  0.06288048  0.74917488    -0.41700
N476        N  0.93832877  0.29191451  0.70493594    -0.43100
H477        H  0.96381858  0.19057114  0.65538996     0.13100
H478        H  0.05031370  0.16551620  0.79569900     0.09600
H479        H  0.94391948  0.22991716  0.81893704     0.10600
H480        H  0.07525166  0.33268728  0.83120747     0.16400
loop_ 
_geom_bond_atom_site_label_1 
_geom_bond_atom_site_label_2 
_geom_bond_distance 
_geom_bond_site_symmetry_2 
_ccdc_geom_bond_type 
O1           Mg3   2.151   1_545  S
O1           Mg9   2.159       .  S
O1           C36   1.236       .  S
C2           O15   1.235       .  S
C2           O39   1.270       .  A
C2           H41   1.081       .  S
Mg3          O32   2.160       .  S
Mg3          O47   2.304       .  S
Mg3          O43   2.266       .  S
Mg3          O14   2.295   1_655  S
O4          Mg46   2.163       .  S
O4          Mg29   2.154   1_455  S
O4           C25   1.236       .  S
O5           C36   1.271       .  A
O5          Mg29   2.304       .  S
C6            O8   1.273       .  A
C6           O20   1.273       .  A
C6          C365   1.491       .  S
O7           C35   1.268       .  A
O7           Mg9   2.291   1_565  S
O8          Mg40   2.275       .  S
Mg9          O15   2.152       .  S
Mg9          O23   2.273       .  S
Mg9          O11   2.281       .  S
C10          O48   1.272   1_545  A
C10          O16   1.275       .  A
C10         C389   1.497       .  S
O11          C18   1.273       .  A
H12          C25   1.080       .  S
C13          O27   1.236       .  S
C13          O28   1.270       .  A
C13          H38   1.080       .  S
O14          C37   1.268       .  A
O15         Mg29   2.156       .  S
O16         Mg46   2.314       .  S
C17          O30   1.270       .  A
C17          O22   1.278   1_455  A
C17         C461   1.491       .  S
C18          O45   1.275       .  A
C18         C341   1.497       .  S
Mg19         O26   2.146       .  S
Mg19         O27   2.150       .  S
Mg19         O20   2.272       .  S
Mg19         O21   2.299   1_565  S
Mg19         O48   2.272       .  S
O21          C25   1.270       .  A
O22         Mg29   2.310       .  S
O23          C42   1.272       .  A
O24          C44   1.278       .  A
O24         Mg40   2.314       .  S
O26         Mg40   2.161       .  S
O26          C37   1.234       .  S
O27         Mg46   2.138   1_565  S
O28         Mg40   2.299       .  S
Mg29         O45   2.300       .  S
O30         Mg46   2.250       .  S
H31          C36   1.080       .  S
O32         Mg40   2.137   1_655  S
O32          C35   1.235       .  S
H33          C35   1.081       .  S
H34          C37   1.080       .  S
O39         Mg46   2.301   1_655  S
C42          O47   1.276   1_545  A
C42         C413   1.500   1_545  S
O43          C44   1.273   1_655  A
C44         C437   1.491       .  S
O49         Mg51   2.143       .  S
O49         Mg57   2.159   1_455  S
O49          C84   1.236       .  S
C50          O63   1.235       .  S
C50          O87   1.269   1_554  A
C50          H89   1.081       .  S
Mg51         O80   2.155   1_554  S
Mg51         O95   2.295       .  S
Mg51         O91   2.261       .  S
Mg51         O62   2.296       .  S
O52         Mg94   2.156   1_554  S
O52         Mg77   2.151       .  S
O52          C73   1.235   1_655  S
O53          C84   1.269   1_655  A
O53         Mg77   2.294       .  S
C54          O56   1.274       .  A
C54          O68   1.274       .  A
C54         C298   1.499       .  S
O55          C83   1.271   1_554  A
O55         Mg57   2.300       .  S
O56         Mg88   2.284       .  S
Mg57         O63   2.143       .  S
Mg57         O71   2.278       .  S
Mg57         O59   2.303       .  S
C58          O96   1.271       .  A
C58          O64   1.273   1_455  A
C58         C466   1.492       .  S
O59          C66   1.275       .  A
H60          C73   1.079       .  S
C61          O75   1.235       .  S
C61          O76   1.269   1_655  A
C61          H86   1.080       .  S
O62          C85   1.269       .  A
O63         Mg77   2.159       .  S
O64         Mg94   2.298       .  S
C65          O78   1.270       .  A
C65          O70   1.276   1_556  A
C65         C245   1.469       .  S
C66          O93   1.276       .  A
C66         C317   1.500       .  S
Mg67         O74   2.137       .  S
Mg67         O75   2.162   1_455  S
Mg67         O68   2.296       .  S
Mg67         O69   2.298       .  S
Mg67         O96   2.250       .  S
O69          C73   1.270   1_556  A
O70         Mg77   2.317       .  S
O71          C90   1.273       .  A
O72          C92   1.276   1_556  A
O72         Mg88   2.307       .  S
O74         Mg88   2.155       .  S
O74          C85   1.235   1_556  S
O75         Mg94   2.145       .  S
O76         Mg88   2.298       .  S
Mg77         O93   2.287       .  S
O78         Mg94   2.248       .  S
H79          C84   1.080       .  S
O80         Mg88   2.150       .  S
O80          C83   1.236   1_455  S
H81          C83   1.081       .  S
H82          C85   1.081       .  S
O87         Mg94   2.296       .  S
C90          O95   1.275   1_655  A
C90         C442   1.490       .  S
O91          C92   1.271       .  A
C92         C274   1.494       .  S
O97         Mg99   2.160       .  S
O97        Mg105   2.164       .  S
O97         C132   1.235       .  S
C98         O111   1.236       .  S
C98         O135   1.270       .  A
C98         H137   1.081       .  S
Mg99        O128   2.152       .  S
Mg99        O143   2.278       .  S
Mg99        O139   2.278       .  S
Mg99        O110   2.299       .  S
O100       Mg142   2.158       .  S
O100       Mg125   2.154       .  S
O100        C121   1.237       .  S
O101        C132   1.270       .  A
O101       Mg125   2.301       .  S
C102        O104   1.274       .  A
C102        O116   1.280       .  A
C102        C221   1.498       .  S
O103        C131   1.272       .  A
O103       Mg105   2.308       .  S
O104       Mg136   2.270       .  S
Mg105       O111   2.143       .  S
Mg105       O119   2.276       .  S
Mg105       O107   2.342       .  S
C106        O144   1.276       .  A
C106        O112   1.273       .  A
C106        C346   1.498       .  S
O107        C114   1.280       .  A
H108        C121   1.080       .  S
C109        O123   1.234       .  S
C109        O124   1.268       .  A
C109        H134   1.080       .  S
O110        C133   1.271       .  A
O111       Mg125   2.154       .  S
O112       Mg142   2.277       .  S
C113        O126   1.271       .  A
C113        O118   1.278       .  A
C113        C322   1.497       .  S
C114        O141   1.275       .  A
C114        C197   1.504       .  S
Mg115       O122   2.154       .  S
Mg115       O123   2.162       .  S
Mg115       O116   2.339       .  S
Mg115       O117   2.305       .  S
Mg115       O144   2.301       .  S
O117        C121   1.272       .  A
O118       Mg125   2.320       .  S
O119        C138   1.274       .  A
O120        C140   1.276       .  A
O120       Mg136   2.310       .  S
O122       Mg136   2.161       .  S
O122        C133   1.237       .  S
O123       Mg142   2.147       .  S
O124       Mg136   2.293       .  S
Mg125       O141   2.278       .  S
O126       Mg142   2.268       .  S
H127        C132   1.079       .  S
O128       Mg136   2.153       .  S
O128        C131   1.236       .  S
H129        C131   1.081       .  S
H130        C133   1.081       .  S
O135       Mg142   2.294       .  S
C138        O143   1.272       .  A
C138        C370   1.479       .  S
O139        C140   1.272       .  A
C140        C293   1.501       .  S
O145       Mg147   2.157   1_565  S
O145       Mg153   2.162       .  S
O145        C180   1.236       .  S
C146        O159   1.237       .  S
C146        O183   1.272       .  A
C146        H185   1.080       .  S
Mg147       O176   2.162       .  S
Mg147       O191   2.336       .  S
Mg147       O187   2.287       .  S
Mg147       O158   2.307   1_554  S
O148       Mg190   2.161       .  S
O148       Mg173   2.147   1_556  S
O148        C169   1.234       .  S
O149        C180   1.270       .  A
O149       Mg173   2.297       .  S
C150        O152   1.276       .  A
C150        O164   1.274       .  A
C150        C226   1.506       .  S
O151        C179   1.271       .  A
O151       Mg153   2.310   1_545  S
O152       Mg184   2.304       .  S
Mg153       O159   2.156       .  S
Mg153       O167   2.277       .  S
Mg153       O155   2.342       .  S
C154        O192   1.274   1_565  A
C154        O160   1.278       .  A
C154        C394   1.489       .  S
O155        C162   1.280       .  A
H156        C169   1.081       .  S
C157        O171   1.236       .  S
C157        O172   1.269       .  A
C157        H182   1.081       .  S
O158        C181   1.272       .  A
O159       Mg173   2.159       .  S
O160       Mg190   2.314       .  S
C161        O174   1.273       .  A
C161        O166   1.273   1_556  A
C161        C269   1.493       .  S
C162        O189   1.271       .  A
C162        C202   1.502       .  S
Mg163       O170   2.153       .  S
Mg163       O171   2.170       .  S
Mg163       O164   2.305       .  S
Mg163       O165   2.290   1_545  S
Mg163       O192   2.281       .  S
O165        C169   1.267       .  A
O166       Mg173   2.276       .  S
O167        C186   1.274   1_565  A
O168        C188   1.272   1_556  A
O168       Mg184   2.279       .  S
O170       Mg184   2.157       .  S
O170        C181   1.236       .  S
O171       Mg190   2.142   1_545  S
O172       Mg184   2.291       .  S
Mg173       O189   2.269       .  S
O174       Mg190   2.283       .  S
H175        C180   1.080       .  S
O176       Mg184   2.177   1_554  S
O176        C179   1.235       .  S
H177        C179   1.080       .  S
H178        C181   1.081       .  S
O183       Mg190   2.306   1_554  S
C186        O191   1.281       .  A
C186        C418   1.504       .  S
O187        C188   1.275       .  A
C188        C250   1.481       .  S
C193        C194   1.410       .  A
C193        C198   1.405       .  A
C193        C207   1.443       .  S
C194        C199   1.497       .  S
C194        C195   1.404       .  A
C195        H214   1.085       .  S
C195        C196   1.406       .  A
C196        C197   1.419       .  A
C196        C208   1.443       .  S
C197        C198   1.412       .  A
C198        H213   1.084       .  S
C199        C200   1.403       .  A
C199        C204   1.412       .  A
C200        H215   1.084       .  S
C200        C201   1.408       .  A
C201        C202   1.421       .  A
C201        C205   1.444       .  S
C202        C203   1.408       .  A
C203        H216   1.084       .  S
C203        C204   1.404       .  A
C204        C206   1.444       .  S
C205        N209   1.157       .  T
C206        N210   1.157       .  T
C207        N212   1.157       .  T
C208        N211   1.157       .  T
C217        C218   1.408       .  A
C217        C222   1.404       .  A
C217        C231   1.444       .  S
C218        C223   1.492       .  S
C218        C219   1.403       .  A
C219        H238   1.085       .  S
C219        C220   1.406       .  A
C220        C221   1.417       .  A
C220        C232   1.443       .  S
C221        C222   1.411       .  A
C222        H237   1.084       .  S
C223        C224   1.400       .  A
C223        C228   1.408       .  A
C224        H239   1.085       .  S
C224        C225   1.405       .  A
C225        C226   1.425       .  A
C225        C229   1.445       .  S
C226        C227   1.412       .  A
C227        H240   1.084       .  S
C227        C228   1.407       .  A
C228        C230   1.443       .  S
C229        N233   1.158       .  T
C230        N234   1.157       .  T
C231        N236   1.157       .  T
C232        N235   1.157       .  T
C241        C242   1.414   1_556  A
C241        C246   1.405       .  A
C241        C255   1.443       .  S
C242        C247   1.483       .  S
C242        C243   1.400       .  A
C243        H262   1.085       .  S
C243        C244   1.396       .  A
C244        C245   1.410   1_554  A
C244        C256   1.445       .  S
C245        C246   1.401       .  A
C246        H261   1.084       .  S
C247        C248   1.401   1_554  A
C247        C252   1.411       .  A
C248        H263   1.085       .  S
C248        C249   1.399       .  A
C249        C250   1.415   1_556  A
C249        C253   1.444       .  S
C250        C251   1.405       .  A
C251        H264   1.085       .  S
C251        C252   1.401       .  A
C252        C254   1.444       .  S
C253        N257   1.157       .  T
C254        N258   1.157       .  T
C255        N260   1.157       .  T
C256        N259   1.157       .  T
C265        C266   1.404   1_554  A
C265        C270   1.395       .  A
C265        C279   1.444       .  S
C266        C271   1.482       .  S
C266        C267   1.404       .  A
C267        H286   1.085       .  S
C267        C268   1.405       .  A
C268        C269   1.418       .  A
C268        C280   1.444       .  S
C269        C270   1.411   1_556  A
C270        H285   1.084       .  S
C271        C272   1.400   1_556  A
C271        C276   1.406       .  A
C272        H287   1.085       .  S
C272        C273   1.400       .  A
C273        C274   1.420       .  A
C273        C277   1.444       .  S
C274        C275   1.411   1_554  A
C275        H288   1.084       .  S
C275        C276   1.401       .  A
C276        C278   1.444       .  S
C277        N281   1.157       .  T
C278        N282   1.157       .  T
C279        N284   1.157       .  T
C280        N283   1.158       .  T
C289        C290   1.409       .  A
C289        C294   1.402       .  A
C289        C303   1.445       .  S
C290        C295   1.489       .  S
C290        C291   1.401       .  A
C291        H310   1.085       .  S
C291        C292   1.405       .  A
C292        C293   1.422       .  A
C292        C304   1.444       .  S
C293        C294   1.411       .  A
C294        H309   1.084       .  S
C295        C296   1.403       .  A
C295        C300   1.407       .  A
C296        H311   1.085       .  S
C296        C297   1.406       .  A
C297        C298   1.420       .  A
C297        C301   1.444       .  S
C298        C299   1.412       .  A
C299        H312   1.084       .  S
C299        C300   1.401       .  A
C300        C302   1.444       .  S
C301        N305   1.158       .  T
C302        N306   1.157       .  T
C303        N308   1.157       .  T
C304        N307   1.157       .  T
C313        C314   1.408       .  A
C313        C318   1.404       .  A
C313        C327   1.444       .  S
C314        C319   1.486       .  S
C314        C315   1.398       .  A
C315        H334   1.085       .  S
C315        C316   1.403       .  A
C316        C317   1.423       .  A
C316        C328   1.444       .  S
C317        C318   1.410       .  A
C318        H333   1.084       .  S
C319        C320   1.401       .  A
C319        C324   1.408       .  A
C320        H335   1.085       .  S
C320        C321   1.406       .  A
C321        C322   1.422       .  A
C321        C325   1.444       .  S
C322        C323   1.409       .  A
C323        H336   1.084       .  S
C323        C324   1.400       .  A
C324        C326   1.444       .  S
C325        N329   1.157       .  T
C326        N330   1.157       .  T
C327        N332   1.157       .  T
C328        N331   1.157       .  T
C337        C338   1.406       .  A
C337        C342   1.399       .  A
C337        C351   1.444       .  S
C338        C343   1.486       .  S
C338        C339   1.402       .  A
C339        H358   1.085       .  S
C339        C340   1.406       .  A
C340        C341   1.419       .  A
C340        C352   1.442       .  S
C341        C342   1.411       .  A
C342        H357   1.084       .  S
C343        C344   1.403       .  A
C343        C348   1.406       .  A
C344        H359   1.085       .  S
C344        C345   1.406       .  A
C345        C346   1.419       .  A
C345        C349   1.443       .  S
C346        C347   1.413       .  A
C347        H360   1.085       .  S
C347        C348   1.398       .  A
C348        C350   1.444       .  S
C349        N353   1.157       .  T
C350        N354   1.157       .  T
C351        N356   1.157       .  T
C352        N355   1.157       .  T
C361        C362   1.405       .  A
C361        C366   1.395       .  A
C361        C375   1.445       .  S
C362        C367   1.479       .  S
C362        C363   1.402       .  A
C363        H382   1.085       .  S
C363        C364   1.402       .  A
C364        C365   1.418       .  A
C364        C376   1.444       .  S
C365        C366   1.411       .  A
C366        H381   1.084       .  S
C367        C368   1.401       .  A
C367        C372   1.409       .  A
C368        H383   1.085       .  S
C368        C369   1.399       .  A
C369        C370   1.416       .  A
C369        C373   1.445       .  S
C370        C371   1.404       .  A
C371        H384   1.084       .  S
C371        C372   1.399       .  A
C372        C374   1.444       .  S
C373        N377   1.157       .  T
C374        N378   1.157       .  T
C375        N380   1.157       .  T
C376        N379   1.157       .  T
C385        C386   1.409   1_565  A
C385        C390   1.404       .  A
C385        C399   1.444       .  S
C386        C391   1.493   1_545  S
C386        C387   1.404       .  A
C387        H406   1.085       .  S
C387        C388   1.403       .  A
C388        C389   1.419       .  A
C388        C400   1.444       .  S
C389        C390   1.411   1_545  A
C390        H405   1.085       .  S
C391        C392   1.406       .  A
C391        C396   1.410       .  A
C392        H407   1.084   1_565  S
C392        C393   1.408       .  A
C393        C394   1.415       .  A
C393        C397   1.443       .  S
C394        C395   1.406       .  A
C395        H408   1.085       .  S
C395        C396   1.400       .  A
C396        C398   1.444       .  S
C397        N401   1.157       .  T
C398        N402   1.157       .  T
C399        N404   1.157       .  T
C400        N403   1.157       .  T
C409        C410   1.409   1_565  A
C409        C414   1.401       .  A
C409        C423   1.444       .  S
C410        C415   1.490       .  S
C410        C411   1.401       .  A
C411        H430   1.085       .  S
C411        C412   1.405       .  A
C412        C413   1.421   1_545  A
C412        C424   1.444       .  S
C413        C414   1.411       .  A
C414        H429   1.084       .  S
C415        C416   1.400   1_545  A
C415        C420   1.409       .  A
C416        H431   1.085       .  S
C416        C417   1.406       .  A
C417        C418   1.423   1_565  A
C417        C421   1.444       .  S
C418        C419   1.411       .  A
C419        H432   1.084       .  S
C419        C420   1.403       .  A
C420        C422   1.444       .  S
C421        N425   1.157       .  T
C422        N426   1.157       .  T
C423        N428   1.157       .  T
C424        N427   1.157       .  T
C433        C434   1.410   1_455  A
C433        C438   1.399       .  A
C433        C447   1.445       .  S
C434        C439   1.487       .  S
C434        C435   1.402       .  A
C435        H454   1.085       .  S
C435        C436   1.405       .  A
C436        C437   1.418   1_655  A
C436        C448   1.444       .  S
C437        C438   1.407       .  A
C438        H453   1.085       .  S
C439        C440   1.404       .  A
C439        C444   1.408   1_655  A
C440        H455   1.085       .  S
C440        C441   1.406       .  A
C441        C442   1.417       .  A
C441        C445   1.444       .  S
C442        C443   1.408   1_655  A
C443        H456   1.085       .  S
C443        C444   1.398       .  A
C444        C446   1.444       .  S
C445        N449   1.157       .  T
C446        N450   1.157       .  T
C447        N452   1.157       .  T
C448        N451   1.157       .  T
C457        C458   1.405   1_655  A
C457        C462   1.395       .  A
C457        C471   1.444       .  S
C458        C463   1.477       .  S
C458        C459   1.400       .  A
C459        H478   1.085       .  S
C459        C460   1.402       .  A
C460        C461   1.421       .  A
C460        C472   1.444       .  S
C461        C462   1.408   1_455  A
C462        H477   1.082       .  S
C463        C464   1.398   1_455  A
C463        C468   1.406       .  A
C464        H479   1.085       .  S
C464        C465   1.399       .  A
C465        C466   1.421   1_655  A
C465        C469   1.444       .  S
C466        C467   1.411       .  A
C467        H480   1.084       .  S
C467        C468   1.399       .  A
C468        C470   1.445       .  S
C469        N473   1.157       .  T
C470        N474   1.157       .  T
C471        N476   1.157       .  T
C472        N475   1.158       .  T
