geometry optimzed in LAMMPS
_audit_creation_date              2020-11-30 
_audit_creation_method            'lammps2cif' 
_symmetry_space_group_name_H-M    'P1' 
_symmetry_Int_Tables_number       1 
_symmetry_cell_setting            triclinic 
loop_ 
_symmetry_equiv_pos_as_xyz 
  x,y,z 
_cell_length_a                    34.27426822 
_cell_length_b                    34.248434851041026 
_cell_length_c                    92.54522539277727 
_cell_angle_alpha                 90.10352247245919 
_cell_angle_beta                  89.88686127937264 
_cell_angle_gamma                 120.59983470823236 
loop_ 
_atom_site_label 
_atom_site_type_symbol 
_atom_site_fract_x 
_atom_site_fract_y 
_atom_site_fract_z 
_atom_site_charge 
C1          C  0.17216711  0.80982941  0.91575041    -0.02300
C2          C  0.58169912  0.82706343  0.91872935    -0.02300
C3          C  0.17543689  0.41128704  0.91820329    -0.02300
O4          O  0.31685722  0.74127156  0.78868833    -0.81600
C5          C  0.27623090  0.59125130  0.82422939     0.97700
O6          O  0.24838321  0.59276264  0.81570812    -0.70700
O7          O  0.25057453  0.66819348  0.82232573    -0.74300
Al8        Al  0.25529709  0.64311694  0.80448938     1.49000
C9          C  0.26956237  0.70965078  0.82566359     0.93000
O10         O  0.37490810  0.73857527  0.82299137    -0.80500
O11         O  0.38150720  0.67800042  0.78825418    -0.74100
Al12       Al  0.34462039  0.73604647  0.80569937     1.90100
O13         O  0.39459750  0.68882740  0.81775543    -0.73200
O14         O  0.30710148  0.59917865  0.79226490    -0.73000
O15         O  0.31814010  0.61487683  0.82190222    -0.78700
O16         O  0.25372785  0.61396005  0.78673929    -0.76900
O17         O  0.31589317  0.67562838  0.80486112    -1.13000
O18         O  0.24781911  0.68594065  0.79336087    -0.72200
C19         C  0.27466080  0.72194049  0.78667483     0.98500
C20         C  0.39723130  0.71969031  0.82589073     0.94900
Al21       Al  0.34748981  0.64739486  0.80496981     1.55600
O22         O  0.30108299  0.73916165  0.81788429    -0.76800
C23         C  0.27400308  0.59237301  0.78440506     0.99100
C24         C  0.40417271  0.72044175  0.78648325     0.94000
O25         O  0.39501355  0.74592490  0.79385299    -0.82100
C26         C  0.48259684  0.00451941  0.98273318     0.02500
C27         C  0.44220939  0.00689111  0.98256219     0.02400
C28         C  0.43579456  0.03173993  0.99365536    -0.18100
C29         C  0.46649418  0.05205250  0.00512801     0.02500
C30         C  0.50552208  0.04819597  0.00544483     0.02400
C31         C  0.51320225  0.02513869  0.99426053    -0.18100
H32         H  0.54325313  0.02226048  0.99476001     0.04500
H33         H  0.40616488  0.03534872  0.99342195     0.04500
C34         C  0.39351589  0.23550383  0.07635377    -0.02300
C35         C  0.78266982  0.62048532  0.07347655    -0.02300
C36         C  0.76995313  0.20064207  0.07334208    -0.02300
O37         O  0.73547384  0.36218368  0.20280136    -0.81600
C38         C  0.58715084  0.33269661  0.16806995     0.97700
O39         O  0.58809871  0.30250258  0.17568442    -0.70700
O40         O  0.66043149  0.30010582  0.16972613    -0.74300
Al41       Al  0.63589225  0.30497147  0.18735554     1.49000
C42         C  0.70112833  0.31783790  0.16590277     0.93000
O43         O  0.73238122  0.42569107  0.16977402    -0.80500
O44         O  0.67469930  0.42823153  0.20610439    -0.74100
Al45       Al  0.73032444  0.39267259  0.18645600     1.90100
O46         O  0.68658972  0.44804517  0.17730792    -0.73200
O47         O  0.59341175  0.35699023  0.20050574    -0.73000
O48         O  0.61118654  0.37389282  0.17151390    -0.78700
O49         O  0.60575994  0.30167377  0.20499160    -0.76900
O50         O  0.67005187  0.36536022  0.18772459    -1.13000
O51         O  0.67699693  0.29471866  0.19850223    -0.72200
C52         C  0.71403234  0.31994527  0.20497847     0.98500
C53         C  0.71527239  0.45041461  0.16830044     0.94900
Al54       Al  0.64362199  0.39872895  0.18885355     1.55600
O55         O  0.73185508  0.35002434  0.17319051    -0.76800
C56         C  0.58368161  0.32131267  0.20734131     0.99100
C57         C  0.71737684  0.45035225  0.20739300     0.94000
O58         O  0.74202869  0.44182143  0.19931778    -0.82100
C59         C  0.99807391  0.49978226  0.98537947     0.02500
C60         C  0.99940720  0.54195226  0.98514705     0.02400
C61         C  0.97626839  0.55032724  0.99624573    -0.18100
C62         C  0.95105686  0.51796539  0.00702205     0.02500
C63         C  0.94966098  0.47584447  0.00697539     0.02400
C64         C  0.97379540  0.46806578  0.99623603    -0.18100
H65         H  0.97349178  0.43622621  0.99623181     0.04500
H66         H  0.97743693  0.58253640  0.99648803     0.04500
C67         C  0.44337648  0.51646407  0.98700817     0.02500
C68         C  0.48495554  0.55841254  0.98690018     0.02400
C69         C  0.51825352  0.56587090  0.99720521    -0.18100
C70         C  0.51048325  0.53369417  0.00786004     0.02500
C71         C  0.46845626  0.49273601  0.00818800     0.02400
C72         C  0.43576396  0.48423997  0.99764874    -0.18100
H73         H  0.40365855  0.45245157  0.99788325     0.04500
H74         H  0.55091462  0.59700143  0.99686983     0.04500
C75         C  0.07215932  0.54906765  0.40662340    -0.02300
C76         C  0.47701697  0.55647362  0.40591501    -0.02300
C77         C  0.47889255  0.95345549  0.40862817    -0.02300
O78         O  0.27138322  0.61700614  0.53718001    -0.81600
C79         C  0.38702926  0.76165216  0.49999822     0.97700
O80         O  0.35770749  0.76149292  0.50832300    -0.70700
O81         O  0.28192926  0.68798326  0.50278256    -0.74300
Al82       Al  0.31274280  0.71413263  0.52023458     1.49000
C83         C  0.25684796  0.64653139  0.49992679     0.93000
O84         O  0.33174423  0.61532282  0.50280776    -0.80500
O85         O  0.39983832  0.67843846  0.53782425    -0.74100
Al86       Al  0.30412719  0.61977839  0.52015222     1.90100
O87         O  0.40202007  0.66205605  0.50884758    -0.73200
O88         O  0.40963619  0.75913670  0.53154496    -0.73000
O89         O  0.40345163  0.73687570  0.50272381    -0.78700
O90         O  0.34211978  0.74572252  0.53756936    -0.76900
O91         O  0.33838689  0.68017520  0.52046245    -1.13000
O92         O  0.26127650  0.67346566  0.53173741    -0.72200
C93         C  0.24966126  0.63744169  0.53873678     0.98500
C94         C  0.37350625  0.63265647  0.50030392     0.94900
Al95       Al  0.39864294  0.70689614  0.52036158     1.55600
O96         O  0.25728293  0.61663331  0.50779629    -0.76800
C97         C  0.38475938  0.76977816  0.53862795     0.99100
C98         C  0.37870953  0.63601108  0.53984110     0.94000
O99         O  0.34389853  0.61005119  0.53240644    -0.82100
C100        C  0.26672354  0.15258846  0.24829622    -0.02300
C101        C  0.88811941  0.76234440  0.25259983    -0.02300
C102        C  0.87047663  0.16659892  0.25106985    -0.02300
O103        O  0.91897290  0.93979909  0.12630994    -0.81600
C104        C  0.07030968  0.05922789  0.15752852     0.97700
O105        O  0.04843201  0.01773341  0.15440869    -0.70700
O106        O  0.97576793  0.94078851  0.14961283    -0.74300
Al107      Al  0.01711036  0.98952225  0.13731474     1.49000
C108        C  0.94705703  0.93945681  0.15845436     0.93000
O109        O  0.92134217  0.03162519  0.15026734    -0.80500
O110        O  0.97530901  0.08646838  0.12567502    -0.74100
Al111      Al  0.92714097  0.98958948  0.13817760     1.90100
O112        O  0.99126455  0.08359153  0.15488605    -0.73200
O113        O  0.05142539  0.08541679  0.12014396    -0.73000
O114        O  0.06736827  0.08763410  0.14958056    -0.78700
O115        O  0.06598547  0.03179646  0.12537250    -0.76900
O116        O  0.98761659  0.02000965  0.13737987    -1.13000
O117        O  0.98783438  0.95657865  0.12032104    -0.72200
C118        C  0.94541894  0.93236747  0.11880571     0.98500
C119        C  0.94991326  0.06310348  0.15821198     0.94900
Al120      Al  0.01852917  0.08062214  0.13744288     1.55600
O121        O  0.92671184  0.96053522  0.15570595    -0.76800
C122        C  0.07486558  0.06684210  0.11826837     0.99100
C123        C  0.93933475  0.05910779  0.11896984     0.94000
O124        O  0.92097019  0.01687576  0.12107824    -0.82100
C125        C  0.20916966  0.38179727  0.33713588     0.02500
C126        C  0.17067465  0.38676681  0.33715506     0.02400
C127        C  0.13816540  0.36647525  0.32620295    -0.18100
C128        C  0.14270870  0.34134431  0.31505288     0.02500
C129        C  0.18137025  0.33641473  0.31481270     0.02400
C130        C  0.21387720  0.35660109  0.32593971    -0.18100
H131        H  0.24353229  0.35301688  0.32580883     0.04500
H132        H  0.10860077  0.37024685  0.32638858     0.04500
C133        C  0.67816186  0.84109243  0.34591043     0.02500
C134        C  0.67673689  0.88163169  0.34510425     0.02400
C135        C  0.69807285  0.91153084  0.33348926    -0.18100
C136        C  0.72089416  0.90228113  0.32257993     0.02500
C137        C  0.72402822  0.86263980  0.32372288     0.02400
C138        C  0.70278725  0.83286911  0.33536840    -0.18100
H139        H  0.70382088  0.80177320  0.33590089     0.04500
H140        H  0.69596578  0.94201161  0.33276157     0.04500
C141        C  0.21883426  0.86559723  0.33772436     0.02500
C142        C  0.18311556  0.81967547  0.33570540     0.02400
C143        C  0.15601544  0.80953957  0.32321224    -0.18100
C144        C  0.16132298  0.84299600  0.31337100     0.02500
C145        C  0.19586785  0.88828690  0.31561825     0.02400
C146        C  0.22318239  0.89900484  0.32786881    -0.18100
H147        H  0.24924179  0.93415193  0.32955773     0.04500
H148        H  0.12879393  0.77504058  0.32137065     0.04500
C149        C  0.71104234  0.87579738  0.73795985    -0.02300
C150        C  0.11901352  0.28442356  0.73914922    -0.02300
C151        C  0.11455226  0.87003368  0.74114969    -0.02300
O152        O  0.04077098  0.01306644  0.86885133    -0.81600
C153        C  0.89532300  0.97326317  0.83086165     0.97700
O154        O  0.89832913  0.94457937  0.83859246    -0.70700
O155        O  0.97390008  0.94630876  0.83462439    -0.74300
Al156      Al  0.94476507  0.95061574  0.85153782     1.49000
C157        C  0.01569130  0.96521479  0.83203372     0.93000
O158        O  0.04130809  0.07000504  0.83372229    -0.80500
O159        O  0.97859822  0.07737677  0.86817424    -0.74100
Al160      Al  0.03758942  0.04049170  0.85136405     1.90100
O161        O  0.99107123  0.08982253  0.83844782    -0.73200
O162        O  0.89971634  0.00334769  0.86349251    -0.73000
O163        O  0.91644322  0.01455030  0.83427215    -0.78700
O164        O  0.90975245  0.94650195  0.86831246    -0.76900
O165        O  0.97688055  0.01135471  0.85154669    -1.13000
O166        O  0.98570803  0.94381827  0.86412043    -0.72200
C167        C  0.02153842  0.97076230  0.87096751     0.98500
C168        C  0.02213613  0.09190699  0.83052001     0.94900
Al169      Al  0.94876247  0.04329343  0.85121804     1.55600
O170        O  0.04351390  0.99721955  0.83997239    -0.76800
C171        C  0.88913590  0.96783449  0.87056806     0.99100
C172        C  0.02104710  0.10128116  0.86949604     0.94000
O173        O  0.04664299  0.09179519  0.86240363    -0.82100
C174        C  0.52377701  0.08695140  0.58261387    -0.02300
C175        C  0.93500626  0.49104968  0.58398190    -0.02300
C176        C  0.51987215  0.46748338  0.58410830    -0.02300
O177        O  0.73322886  0.35607226  0.45289365    -0.81600
C178        C  0.62040361  0.38267126  0.49146994     0.97700
O179        O  0.65073638  0.41321709  0.48358287    -0.70700
O180        O  0.72540946  0.41293571  0.48880629    -0.74300
Al181      Al  0.69536805  0.41150972  0.47139180     1.49000
C182        C  0.74989723  0.39574142  0.49088002     0.93000
O183        O  0.67072914  0.28993627  0.48635133    -0.80500
O184        O  0.60532100  0.29087347  0.45168667    -0.74100
Al185      Al  0.69954872  0.32378398  0.46955203     1.90100
O186        O  0.60093484  0.26801883  0.48040885    -0.73200
O187        O  0.59895016  0.36252944  0.45917051    -0.73000
O188        O  0.60217570  0.34167575  0.48778935    -0.78700
O189        O  0.66803718  0.41710353  0.45405664    -0.76900
O190        O  0.66740136  0.35137464  0.47002914    -1.13000
O191        O  0.74685890  0.42298119  0.46008601    -0.72200
C192        C  0.75737168  0.39878772  0.45260783     0.98500
C193        C  0.62888773  0.26629330  0.48885525     0.94900
Al194      Al  0.60693691  0.31865056  0.46969223     1.55600
O195        O  0.74694389  0.36527569  0.48242899    -0.76800
C196        C  0.62569956  0.39818598  0.45227159     0.99100
C197        C  0.62489733  0.26865995  0.44923595     0.94000
O198        O  0.65889470  0.27581210  0.45669806    -0.82100
C199        C  0.84682720  0.69583731  0.67562320     0.02500
C200        C  0.80548052  0.69518737  0.67446187     0.02400
C201        C  0.77640072  0.67185189  0.66287410    -0.18100
C202        C  0.78774574  0.64960390  0.65228548     0.02500
C203        C  0.82965762  0.65079564  0.65347703     0.02400
C204        C  0.85839231  0.67389172  0.66514385    -0.18100
H205        H  0.89057521  0.67515253  0.66603795     0.04500
H206        H  0.74439303  0.67097028  0.66212262     0.04500
C207        C  0.29780418  0.18538960  0.67463129     0.02500
C208        C  0.29368744  0.14181825  0.67406881     0.02400
C209        C  0.31661912  0.13280508  0.66306940    -0.18100
C210        C  0.34350400  0.16555887  0.65278618     0.02500
C211        C  0.34817913  0.20873488  0.65346371     0.02400
C212        C  0.32648429  0.21840210  0.66452035    -0.18100
H213        H  0.33071433  0.25199694  0.66486410     0.04500
H214        H  0.31340796  0.09966543  0.66244698     0.04500
C215        C  0.80293751  0.15884905  0.67636242     0.02500
C216        C  0.84592745  0.19944908  0.67580325     0.02400
C217        C  0.85533056  0.23136877  0.66481456    -0.18100
C218        C  0.82340196  0.22397324  0.65414073     0.02500
C219        C  0.78098235  0.18347970  0.65444610     0.02400
C220        C  0.77117617  0.15157915  0.66548836    -0.18100
H221        H  0.73883361  0.12009935  0.66530451     0.04500
H222        H  0.88808358  0.26243601  0.66455836     0.04500
C223        C  0.57492855  0.41829520  0.55857693    -0.27400
C224        C  0.57270443  0.43566522  0.54513111     0.02200
C225        C  0.55782201  0.46689517  0.54444084     0.30300
C226        C  0.54235689  0.47792221  0.55690118    -0.19200
C227        C  0.53994753  0.45731010  0.57039242    -0.28600
C228        C  0.56013029  0.42987668  0.57119027     0.44300
C229        C  0.58618992  0.42147160  0.53181341     0.05500
O230        O  0.55675423  0.48569856  0.53147225    -0.57100
H231        H  0.53254723  0.50312068  0.55574522     0.18400
O232        O  0.56534259  0.41419068  0.58427541    -0.63800
H233        H  0.58834715  0.39574974  0.55931187     0.16900
C234        C  0.62380729  0.45291124  0.52367390     0.29100
C235        C  0.63389170  0.43995679  0.51049782    -0.24700
C236        C  0.60735713  0.39534638  0.50526828    -0.24000
C237        C  0.57052558  0.36334002  0.51376164     0.40600
C238        C  0.56008919  0.37666805  0.52686079    -0.26500
O239        O  0.65097828  0.49649024  0.52852442    -0.58400
H240        H  0.66305923  0.46494423  0.50445035     0.16200
O241        O  0.54384951  0.31925499  0.50927023    -0.59800
H242        H  0.53108744  0.35211317  0.53307545     0.14700
H243        H  0.54929456  0.38065054  0.58352401     0.46500
H244        H  0.67276111  0.49503448  0.53521502     0.41900
H245        H  0.55717457  0.30249352  0.51382333     0.45300
H246        H  0.58288544  0.51718553  0.53172741     0.36800
C247        C  0.70247730  0.55497613  0.62780728    -0.27400
C248        C  0.68261468  0.57653977  0.62049365     0.02200
C249        C  0.69946214  0.62299971  0.62319580     0.30300
C250        C  0.73532811  0.64674302  0.63295493    -0.19200
C251        C  0.75421247  0.62477940  0.64054901    -0.28600
C252        C  0.73692247  0.57824110  0.63798912     0.44300
C253        C  0.64200596  0.54902848  0.61114928     0.05500
O254        O  0.67860117  0.64448157  0.61734676    -0.57100
H255        H  0.74728384  0.68222873  0.63503102     0.18400
O256        O  0.75151980  0.55438780  0.64593135    -0.63800
H257        H  0.69006361  0.51927137  0.62602432     0.16900
C258        C  0.63761438  0.56322062  0.59728654     0.29100
C259        C  0.59816170  0.53681918  0.58915645    -0.24700
C260        C  0.56209252  0.49483239  0.59423784    -0.24000
C261        C  0.56934995  0.47882551  0.60765818     0.40600
C262        C  0.60776030  0.50657902  0.61602919    -0.26500
O263        O  0.67216728  0.60219370  0.59132551    -0.58400
H264        H  0.59576130  0.54918327  0.57862474     0.16200
O265        O  0.54257596  0.43466357  0.61207453    -0.59800
H266        H  0.61122844  0.49390667  0.62637768     0.14700
H267        H  0.73325276  0.54572695  0.65492921     0.46500
H268        H  0.69393234  0.59371267  0.58752500     0.41900
H269        H  0.53179481  0.43593738  0.62193511     0.45300
H270        H  0.70161560  0.66858596  0.61100130     0.36800
C271        C  0.42665067  0.32034631  0.63489296    -0.27400
C272        C  0.40817334  0.31221504  0.62088596     0.02200
C273        C  0.37192573  0.26851275  0.61744145     0.30300
C274        C  0.35421205  0.23446420  0.62797256    -0.19200
C275        C  0.37177662  0.24324528  0.64205116    -0.28600
C276        C  0.40847619  0.28645963  0.64544936     0.44300
C277        C  0.42764554  0.34963726  0.61009117     0.05500
O278        O  0.35247626  0.25901987  0.60399201    -0.57100
H279        H  0.32533779  0.20161262  0.62530528     0.18400
O280        O  0.42605165  0.29623930  0.65916219    -0.63800
H281        H  0.45520952  0.35327958  0.63770178     0.16900
C282        C  0.43692955  0.39343886  0.61378627     0.29100
C283        C  0.46329238  0.42995960  0.60461248    -0.24700
C284        C  0.48176697  0.42410261  0.59167084    -0.24000
C285        C  0.46380137  0.37881415  0.58666633     0.40600
C286        C  0.43882256  0.34238724  0.59615492    -0.26500
O287        O  0.42266739  0.40147720  0.62672235    -0.58400
H288        H  0.47292581  0.46373973  0.60829042     0.16200
O289        O  0.46737231  0.36957790  0.57241631    -0.59800
H290        H  0.42920646  0.30847756  0.59265322     0.14700
H291        H  0.44600766  0.28312196  0.65977925     0.46500
H292        H  0.39044988  0.39213253  0.62519569     0.41900
H293        H  0.47651308  0.34635198  0.57229154     0.45300
H294        H  0.33069267  0.26996499  0.60420348     0.36800
C295        C  0.89747813  0.49937829  0.54492131    -0.27400
C296        C  0.86900927  0.45372123  0.54109860     0.02200
C297        C  0.86580945  0.42010833  0.55057351     0.30300
C298        C  0.88814465  0.43216839  0.56391061    -0.19200
C299        C  0.91270572  0.47782850  0.56865028    -0.28600
C300        C  0.91995204  0.51156198  0.55829707     0.44300
C301        C  0.84112445  0.44130718  0.52763299     0.05500
O302        O  0.83990043  0.37499671  0.54710893    -0.57100
H303        H  0.88550510  0.40493334  0.57049889     0.18400
O304        O  0.94619509  0.55676532  0.56158637    -0.63800
H305        H  0.90184393  0.52591638  0.53757769     0.16900
C306        C  0.81333226  0.45972153  0.52472674     0.29100
C307        C  0.78462822  0.44515080  0.51266419    -0.24700
C308        C  0.78234246  0.41168413  0.50326749    -0.24000
C309        C  0.81073932  0.39374906  0.50606872     0.40600
C310        C  0.83997724  0.40889868  0.51802956    -0.26500
O311        O  0.81298900  0.49122220  0.53382060    -0.58400
H312        H  0.76340064  0.45966225  0.51084351     0.16200
O313        O  0.81037885  0.36137927  0.49723359    -0.59800
H314        H  0.86151214  0.39476736  0.51989963     0.14700
H315        H  0.97402730  0.56801714  0.55566416     0.46500
H316        H  0.79227297  0.47342071  0.54182398     0.41900
H317        H  0.78756451  0.33191917  0.50153241     0.45300
H318        H  0.80881013  0.36574420  0.55041522     0.36800
C319        C  0.87498423  0.55460269  0.59915614    -0.27400
C320        C  0.89761705  0.57111267  0.61231624     0.02200
C321        C  0.93309178  0.56339024  0.61575035     0.30300
C322        C  0.94375794  0.53784616  0.60646651    -0.19200
C323        C  0.92201105  0.52161567  0.59295016    -0.28600
C324        C  0.88619869  0.52993057  0.58957873     0.44300
C325        C  0.88138456  0.59295191  0.62280710     0.05500
O326        O  0.95764180  0.58052922  0.62821416    -0.57100
H327        H  0.97029405  0.53136960  0.60972228     0.18400
O328        O  0.86007833  0.51256601  0.57741158    -0.63800
H329        H  0.84667735  0.55899353  0.59650186     0.16900
C330        C  0.87176177  0.62672208  0.61846599     0.29100
C331        C  0.85350678  0.64427208  0.62836806    -0.24700
C332        C  0.84557044  0.62946935  0.64277048    -0.24000
C333        C  0.85609549  0.59652394  0.64719229     0.40600
C334        C  0.87326076  0.57822511  0.63724335    -0.26500
O335        O  0.88069867  0.64333842  0.60463040    -0.58400
H336        H  0.84659082  0.67034653  0.62489427     0.16200
O337        O  0.84966767  0.58197002  0.66126684    -0.59800
H338        H  0.87961946  0.55186824  0.64081513     0.14700
H339        H  0.82852134  0.49219495  0.58076554     0.46500
H340        H  0.91337439  0.66668609  0.60456176     0.41900
H341        H  0.81868788  0.55503890  0.66159866     0.45300
H342        H  0.98061887  0.61250476  0.62592586     0.36800
C343        C  0.88032061  0.30068651  0.62183460    -0.27400
C344        C  0.86771844  0.33358410  0.62356470     0.02200
C345        C  0.83783820  0.32832121  0.63494358     0.30300
C346        C  0.82201012  0.29140403  0.64446332    -0.19200
C347        C  0.83569152  0.25937172  0.64290737    -0.28600
C348        C  0.86458005  0.26390670  0.63139731     0.44300
C349        C  0.88559948  0.37299923  0.61344681     0.05500
O350        O  0.82485478  0.35973403  0.63710128    -0.57100
H351        H  0.80008244  0.28850564  0.65335745     0.18400
O352        O  0.87848044  0.23307411  0.62963883    -0.63800
H353        H  0.90250487  0.30352809  0.61303685     0.16900
C354        C  0.93239347  0.40163417  0.61099263     0.29100
C355        C  0.94822571  0.43892875  0.60157913    -0.24700
C356        C  0.91806597  0.44834306  0.59399710    -0.24000
C357        C  0.87099153  0.41989580  0.59708200     0.40600
C358        C  0.85545363  0.38256670  0.60635852    -0.26500
O359        O  0.96316044  0.39493570  0.61837990    -0.58400
H360        H  0.98448525  0.46109515  0.60072298     0.16200
O361        O  0.83940143  0.42754668  0.59073231    -0.59800
H362        H  0.81929543  0.36097334  0.60806496     0.14700
H363        H  0.85766433  0.21125419  0.62232571     0.46500
H364        H  0.97453386  0.38143001  0.61124553     0.41900
H365        H  0.82648824  0.43686821  0.59870430     0.45300
H366        H  0.84892207  0.38359546  0.64322505     0.36800
C367        C  0.52961132  0.16087683  0.54942913    -0.27400
C368        C  0.56171684  0.15811630  0.54084205     0.02200
C369        C  0.57746391  0.12926447  0.54506880     0.30300
C370        C  0.56313739  0.10576588  0.55814415    -0.19200
C371        C  0.53418114  0.11154203  0.56771495    -0.28600
C372        C  0.51455687  0.13691012  0.56246279     0.44300
C373        C  0.57856162  0.18530549  0.52745022     0.05500
O374        O  0.60760026  0.12440907  0.53659537    -0.57100
H375        H  0.57685016  0.08465631  0.56124645     0.18400
O376        O  0.47999144  0.13803311  0.56956791    -0.63800
H377        H  0.51588968  0.18170728  0.54598544     0.16900
C378        C  0.54876196  0.18050099  0.51624092     0.29100
C379        C  0.56563540  0.20636500  0.50363780    -0.24700
C380        C  0.61228299  0.23747091  0.50197483    -0.24000
C381        C  0.64193121  0.24284323  0.51341068     0.40600
C382        C  0.62500239  0.21655288  0.52591823    -0.26500
O383        O  0.50308433  0.15054182  0.51748778    -0.58400
H384        H  0.54201748  0.20211004  0.49516339     0.16200
O385        O  0.68739959  0.27418866  0.51264924    -0.59800
H386        H  0.64816597  0.22112459  0.53459193     0.14700
H387        H  0.45262515  0.12017285  0.56354718     0.46500
H388        H  0.49875573  0.12078790  0.51449238     0.41900
H389        H  0.69051939  0.30276966  0.51644342     0.45300
H390        H  0.58859110  0.09901242  0.52994128     0.36800
C391        C  0.67538834  0.16438812  0.63524227    -0.27400
C392        C  0.67755270  0.14399621  0.62233720     0.02200
C393        C  0.71502738  0.13863686  0.61972321     0.30300
C394        C  0.74937336  0.15291707  0.63009509    -0.19200
C395        C  0.74671832  0.17255462  0.64309546    -0.28600
C396        C  0.70961311  0.17847499  0.64562188     0.44300
C397        C  0.64022827  0.12815957  0.61176369     0.05500
O398        O  0.71787487  0.11872061  0.60720732    -0.57100
H399        H  0.77756282  0.14767777  0.62816271     0.18400
O400        O  0.70666730  0.19811189  0.65818733    -0.63800
H401        H  0.64689243  0.16906953  0.63729187     0.16900
C402        C  0.59684362  0.09207968  0.61505528     0.29100
C403        C  0.56132648  0.07920679  0.60527124    -0.24700
C404        C  0.56740789  0.10183765  0.59191285    -0.24000
C405        C  0.61175944  0.13942460  0.58895152     0.40600
C406        C  0.64737526  0.15126804  0.59872608    -0.26500
O407        O  0.58887569  0.06891269  0.62782254    -0.58400
H408        H  0.52814899  0.05135654  0.60823654     0.16200
O409        O  0.62021312  0.16830093  0.57758136    -0.59800
H410        H  0.68051639  0.18030795  0.59640355     0.14700
H411        H  0.68979451  0.17257570  0.66500256     0.46500
H412        H  0.57639762  0.08267736  0.63443642     0.41900
H413        H  0.64367838  0.16706768  0.57161123     0.45300
H414        H  0.70250704  0.08583110  0.60938274     0.36800
C415        C  0.37208271  0.11696058  0.62026424    -0.27400
C416        C  0.41827832  0.13260245  0.62262939     0.02200
C417        C  0.43967487  0.15991490  0.63485899     0.30300
C418        C  0.41514168  0.17124545  0.64436593    -0.19200
C419        C  0.36895480  0.15489313  0.64209887    -0.28600
C420        C  0.34732005  0.12739791  0.63000876     0.44300
C421        C  0.44391344  0.12039030  0.61235069     0.05500
O422        O  0.48435457  0.17499973  0.63779097    -0.57100
H423        H  0.43196906  0.19210669  0.65373099     0.18400
O424        O  0.30225402  0.11141775  0.62747546    -0.63800
H425        H  0.35515939  0.09664043  0.61082367     0.16900
C426        C  0.42806016  0.07504703  0.60842047     0.29100
C427        C  0.45337103  0.06433403  0.59898718    -0.24700
C428        C  0.49436301  0.09839656  0.59272225    -0.24000
C429        C  0.51083959  0.14389494  0.59733468     0.40600
C430        C  0.48545754  0.15433953  0.60678307    -0.26500
O431        O  0.38911831  0.04056911  0.61445211    -0.58400
H432        H  0.44094673  0.02881803  0.59705630     0.16200
O433        O  0.55224606  0.17850609  0.59275522    -0.59800
H434        H  0.49851179  0.18944619  0.60977443     0.14700
H435        H  0.28587920  0.08231303  0.63278516     0.46500
H436        H  0.36617995  0.02963892  0.60662684     0.41900
H437        H  0.54598646  0.19895983  0.58691462     0.45300
H438        H  0.48430942  0.14953309  0.64288883     0.36800
C439        C  0.01995675  0.90707240  0.79737660    -0.27400
C440        C  0.06645083  0.93113665  0.79423565     0.02200
C441        C  0.09640501  0.96485972  0.80388314     0.30300
C442        C  0.07948538  0.97484582  0.81627529    -0.19200
C443        C  0.03272228  0.95118908  0.81940222    -0.28600
C444        C  0.00304498  0.91643409  0.80986877     0.44300
C445        C  0.08285730  0.92033507  0.78083769     0.05500
O446        O  0.14193771  0.98979981  0.80088709    -0.57100
H447        H  0.10315345  0.00185498  0.82330969     0.18400
O448        O  0.95729666  0.89197371  0.81241290    -0.63800
H449        H  0.99660429  0.88068781  0.79009695     0.16900
C450        C  0.11268038  0.90369767  0.78140118     0.29100
C451        C  0.12451260  0.88990699  0.76873675    -0.24700
C452        C  0.10531804  0.88998579  0.75516135    -0.24000
C453        C  0.07913875  0.91150251  0.75462973     0.40600
C454        C  0.06711175  0.92503337  0.76737526    -0.26500
O455        O  0.12978122  0.89975033  0.79434887    -0.58400
H456        H  0.14910504  0.87931128  0.76983692     0.16200
O457        O  0.06279839  0.91700656  0.74174554    -0.59800
H458        H  0.04500598  0.93897974  0.76674965     0.14700
H459        H  0.95235612  0.86556439  0.81824362     0.46500
H460        H  0.10722659  0.86920306  0.79803900     0.41900
H461        H  0.08268097  0.94943948  0.73922635     0.45300
H462        H  0.15664530  0.98016976  0.80810496     0.36800
C463        C  0.03107891  0.78481962  0.71295114    -0.27400
C464        C  0.98932009  0.77768117  0.71787748     0.02200
C465        C  0.98654374  0.79227016  0.73180915     0.30300
C466        C  0.02609976  0.81814546  0.73991351    -0.19200
C467        C  0.06952421  0.83259843  0.73396082    -0.28600
C468        C  0.07077930  0.81122475  0.72091064     0.44300
C469        C  0.95023304  0.75849269  0.70784187     0.05500
O470        O  0.94562250  0.78313623  0.73737283    -0.57100
H471        H  0.02207109  0.82788012  0.75065574     0.18400
O472        O  0.11111723  0.81823502  0.71542669    -0.63800
H473        H  0.03327822  0.77167331  0.70251036     0.16900
C474        C  0.95375939  0.78066553  0.69467186     0.29100
C475        C  0.91882992  0.76077750  0.68453998    -0.24700
C476        C  0.87946609  0.71931085  0.68745889    -0.24000
C477        C  0.87494433  0.69784387  0.70083193     0.40600
C478        C  0.91018231  0.71762290  0.71099794    -0.26500
O479        O  0.99185826  0.82133328  0.69145273    -0.58400
H480        H  0.92293206  0.77718872  0.67418907     0.16200
O481        O  0.83704871  0.65677586  0.70380280    -0.59800
H482        H  0.90698903  0.70025730  0.72109119     0.14700
H483        H  0.11615337  0.83501436  0.70624075     0.46500
H484        H  0.98726745  0.84465039  0.69623405     0.41900
H485        H  0.84363120  0.63377928  0.69989450     0.45300
H486        H  0.94203115  0.80886178  0.73425222     0.36800
C487        C  0.20533450  0.98892932  0.72655297    -0.27400
C488        C  0.18848456  0.99034077  0.71287362     0.02200
C489        C  0.14743343  0.95279134  0.70831019     0.30300
C490        C  0.12370465  0.91526238  0.71740280    -0.19200
C491        C  0.14122083  0.91197961  0.73094056    -0.28600
C492        C  0.18249073  0.95059187  0.73549440     0.44300
C493        C  0.21494171  0.03043443  0.70330343     0.05500
O494        O  0.13124775  0.95139568  0.69463609    -0.57100
H495        H  0.09094440  0.88936816  0.71357939     0.18400
O496        O  0.20015578  0.95160138  0.74889264    -0.63800
H497        H  0.23662312  0.01783691  0.73036424     0.16900
C498        C  0.19490117  0.05263992  0.69634640     0.29100
C499        C  0.22044587  0.08868293  0.68680336    -0.24700
C500        C  0.26667167  0.10463340  0.68454073    -0.24000
C501        C  0.28703750  0.08358388  0.69196050     0.40600
C502        C  0.26120225  0.04667044  0.70106816    -0.26500
O503        O  0.15056631  0.03984615  0.69892317    -0.58400
H504        H  0.20415306  0.10433247  0.68121786     0.16200
O505        O  0.33235046  0.09878649  0.69032453    -0.59800
H506        H  0.27740827  0.03039398  0.70633564     0.14700
H507        H  0.23016867  0.95478693  0.74718019     0.46500
H508        H  0.15133696  0.05728440  0.70759434     0.41900
H509        H  0.34776226  0.12286780  0.69771896     0.45300
H510        H  0.10181979  0.95008047  0.69595282     0.36800
C511        C  0.06393179  0.23077816  0.77596991    -0.27400
C512        C  0.07556948  0.19743124  0.77781169     0.02200
C513        C  0.09871750  0.18972566  0.76664940     0.30300
C514        C  0.11164608  0.21658403  0.75416858    -0.19200
C515        C  0.10331782  0.25282189  0.75264138    -0.28600
C516        C  0.07663681  0.25759124  0.76351946     0.44300
C517        C  0.06231463  0.17037886  0.79132899     0.05500
O518        O  0.10686191  0.15448855  0.76754510    -0.57100
H519        H  0.12761640  0.20794784  0.74569316     0.18400
O520        O  0.06530493  0.29056357  0.76250637    -0.63800
H521        H  0.04539986  0.23663126  0.78436509     0.16900
C522        C  0.09462569  0.16744086  0.79993475     0.29100
C523        C  0.08114167  0.14171863  0.81264882    -0.24700
C524        C  0.03580452  0.11978903  0.81725063    -0.24000
C525        C  0.00360906  0.12326728  0.80874603     0.40600
C526        C  0.01698206  0.14842154  0.79592865    -0.26500
O527        O  0.13960474  0.19025653  0.79617457    -0.58400
H528        H  0.10636576  0.13953705  0.81907056     0.16200
O529        O  0.95875035  0.10120063  0.81263859    -0.59800
H530        H  0.99170417  0.15032839  0.78944724     0.14700
H531        H  0.03242333  0.27418715  0.76033288     0.46500
H532        H  0.15177471  0.22158835  0.79982172     0.41900
H533        H  0.94490971  0.07151789  0.80761915     0.45300
H534        H  0.14030011  0.16881574  0.76810656     0.36800
C535        C  0.01615877  0.28809091  0.72157447    -0.27400
C536        C  0.99168612  0.24422716  0.71587736     0.02200
C537        C  0.00468526  0.21276598  0.71942716     0.30300
C538        C  0.04385376  0.22641997  0.72753091    -0.19200
C539        C  0.07277904  0.27226930  0.73181609    -0.28600
C540        C  0.05574785  0.30221288  0.72973483     0.44300
C541        C  0.95342264  0.23180967  0.70590296     0.05500
O542        O  0.97991577  0.16871464  0.71471215    -0.57100
H543        H  0.05341408  0.20134635  0.72972410     0.18400
O544        O  0.07420258  0.34326803  0.73666755    -0.63800
H545        H  0.00463083  0.31177963  0.71960831     0.16900
C546        C  0.91422872  0.23193781  0.71042145     0.29100
C547        C  0.87890289  0.22069842  0.70062169    -0.24700
C548        C  0.88251150  0.20976808  0.68626158    -0.24000
C549        C  0.92180560  0.20988007  0.68173548     0.40600
C550        C  0.95663394  0.22024337  0.69158214    -0.26500
O551        O  0.91021290  0.24300882  0.72436895    -0.58400
H552        H  0.84886723  0.22091362  0.70416604     0.16200
O553        O  0.92556783  0.19819521  0.66782997    -0.59800
H554        H  0.98656797  0.21988992  0.68798960     0.14700
H555        H  0.08101995  0.36625385  0.72904276     0.46500
H556        H  0.89828944  0.21437308  0.72989297     0.41900
H557        H  0.94248598  0.22733439  0.66254274     0.45300
H558        H  0.95440528  0.15336204  0.72166156     0.36800
C559        C  0.24328656  0.20628818  0.70791198    -0.27400
C560        C  0.22372068  0.22978323  0.70162800     0.02200
C561        C  0.22956810  0.23875612  0.68669111     0.30300
C562        C  0.25100906  0.22131306  0.67823640    -0.19200
C563        C  0.27078691  0.19791486  0.68438541    -0.28600
C564        C  0.26767468  0.19144188  0.69950777     0.44300
C565        C  0.19832266  0.24578052  0.71069888     0.05500
O566        O  0.21788950  0.26779491  0.68047024    -0.57100
H567        H  0.25362759  0.22779254  0.66671654     0.18400
O568        O  0.29089712  0.17377072  0.70626631    -0.63800
H569        H  0.24040210  0.20009218  0.71944597     0.16900
C570        C  0.15709011  0.24103441  0.70599293     0.29100
C571        C  0.13484357  0.25783306  0.71439653    -0.24700
C572        C  0.14893114  0.27423596  0.72862751    -0.24000
C573        C  0.19139514  0.28017542  0.73306051     0.40600
C574        C  0.21556799  0.26655487  0.72411380    -0.26500
O575        O  0.13640846  0.21698255  0.69365705    -0.58400
H576        H  0.10564126  0.25642929  0.70952275     0.16200
O577        O  0.20967690  0.29911398  0.74620046    -0.59800
H578        H  0.24784195  0.27179333  0.72783239     0.14700
H579        H  0.26787178  0.14683526  0.71167639     0.46500
H580        H  0.13162292  0.23769818  0.68740913     0.41900
H581        H  0.20777722  0.27415268  0.75215186     0.45300
H582        H  0.19748304  0.25096566  0.67229394     0.36800
C583        C  0.74853291  0.90780662  0.77833542    -0.27400
C584        C  0.79502865  0.92494313  0.77724920     0.02200
C585        C  0.81484769  0.93146049  0.76354171     0.30300
C586        C  0.78741118  0.91735041  0.75118599    -0.19200
C587        C  0.73949042  0.89467302  0.75215805    -0.28600
C588        C  0.72085111  0.89396925  0.76605614     0.44300
C589        C  0.82231531  0.93805489  0.79060550     0.05500
O590        O  0.86092493  0.95132858  0.76211262    -0.57100
H591        H  0.80358562  0.92234576  0.74074161     0.18400
O592        O  0.67703408  0.88439610  0.76774653    -0.63800
H593        H  0.73357366  0.90587679  0.78883655     0.16900
C594        C  0.83162891  0.97754605  0.79809928     0.29100
C595        C  0.85433279  0.98789939  0.81134279    -0.24700
C596        C  0.86798548  0.95911661  0.81740543    -0.24000
C597        C  0.85813913  0.91914792  0.80989137     0.40600
C598        C  0.83577881  0.90911448  0.79653004    -0.39700
O599        O  0.81813879  0.00597169  0.79261185    -0.58400
H600        H  0.86131557  0.01868709  0.81688347     0.16200
O601        O  0.87143865  0.89041911  0.81523315    -0.59800
H602        H  0.82831495  0.87833555  0.79087580     0.14700
H603        H  0.66272560  0.85933426  0.77488675     0.46500
H604        H  0.84371794  0.02782104  0.78646504     0.41900
H605        H  0.84485443  0.86690832  0.82066046     0.45300
H606        H  0.87223770  0.98415285  0.76084866     0.36800
C607        C  0.76309854  0.97305083  0.70892149    -0.27400
C608        C  0.75152870  0.00401762  0.71436550     0.02200
C609        C  0.72701347  0.99320586  0.72742978     0.30300
C610        C  0.71392837  0.95191748  0.73448615    -0.19200
C611        C  0.72443554  0.91972263  0.72889436    -0.28600
C612        C  0.75204950  0.93288233  0.71620974     0.44300
C613        C  0.76654806  0.04744074  0.70628904     0.05500
O614        O  0.71653207  0.02311141  0.73364178    -0.57100
H615        H  0.69566265  0.94513273  0.74460073     0.18400
O616        O  0.77306238  0.91008005  0.71157920    -0.63800
H617        H  0.78232774  0.98052288  0.69898148     0.16900
C618        C  0.81040381  0.07187488  0.70016678     0.29100
C619        C  0.82149572  0.10729164  0.69044531    -0.24700
C620        C  0.79112073  0.12233921  0.68744420    -0.24000
C621        C  0.74855497  0.10042749  0.69452894     0.40600
C622        C  0.73625512  0.06286451  0.70356102    -0.26500
O623        O  0.84271037  0.06089688  0.70338050    -0.58400
H624        H  0.85382525  0.12215975  0.68498924     0.16200
O625        O  0.71810997  0.11463604  0.69242849    -0.59800
H626        H  0.70240847  0.04502302  0.70809253     0.14700
H627        H  0.76260410  0.90036427  0.70150871     0.46500
H628        H  0.85588764  0.07614861  0.71273898     0.41900
H629        H  0.72906696  0.14201248  0.69856999     0.45300
H630        H  0.74323923  0.04353416  0.73964079     0.36800
C631        C  0.71231238  0.79685406  0.70793207    -0.27400
C632        C  0.74521950  0.78749322  0.71289454     0.02200
C633        C  0.76377662  0.80234767  0.72667663     0.30300
C634        C  0.75135000  0.82846359  0.73501055    -0.19200
C635        C  0.72152598  0.84229731  0.72962010    -0.28600
C636        C  0.69981246  0.82316938  0.71620907     0.44300
C637        C  0.76113937  0.76346525  0.70344918     0.05500
O638        O  0.79502450  0.79236406  0.73199406    -0.57100
H639        H  0.76531741  0.83720242  0.74575297     0.18400
O640        O  0.66898856  0.83318722  0.71053435    -0.63800
H641        H  0.69712541  0.78476210  0.69739733     0.16900
C642        C  0.73807066  0.71581501  0.70288550     0.29100
C643        C  0.75354130  0.69391044  0.69369250    -0.24700
C644        C  0.79188260  0.71907129  0.68492534    -0.24000
C645        C  0.81469307  0.76681885  0.68542768     0.40600
C646        C  0.79956937  0.78865823  0.69476211    -0.26500
O647        O  0.70059894  0.69045719  0.71134742    -0.58400
H648        H  0.73533527  0.65718116  0.69328099     0.16200
O649        O  0.85100231  0.79242806  0.67655556    -0.59800
H650        H  0.81735357  0.82539444  0.69503507     0.14700
H651        H  0.63900286  0.80547907  0.71199870     0.46500
H652        H  0.67447693  0.68532288  0.70533446     0.41900
H653        H  0.83769451  0.79501419  0.66735220     0.45300
H654        H  0.77692941  0.76209681  0.73654751     0.36800
C655        C  0.91426381  0.10623766  0.22542755    -0.27400
C656        C  0.89635950  0.10854016  0.21208490     0.02200
C657        C  0.86563253  0.12394347  0.21159476     0.30300
C658        C  0.85609905  0.14041484  0.22407544    -0.19200
C659        C  0.87827251  0.14403067  0.23739611    -0.28600
C660        C  0.90436520  0.12237343  0.23808854     0.44300
C661        C  0.91037231  0.09591569  0.19858837     0.05500
O662        O  0.84495687  0.12352591  0.19886489    -0.57100
H663        H  0.83074552  0.15002672  0.22302086     0.18400
O664        O  0.92026436  0.11697026  0.25111517    -0.63800
H665        H  0.93617148  0.09205813  0.22601988     0.16900
C666        C  0.95479060  0.12271138  0.19331042     0.29100
C667        C  0.96687715  0.11231530  0.18001760    -0.24700
C668        C  0.93511194  0.07509783  0.17176509    -0.24000
C669        C  0.89042236  0.04830130  0.17713566     0.40600
C670        C  0.87842301  0.05900001  0.19039948    -0.26500
O671        O  0.98608631  0.16030792  0.20079166    -0.58400
H672        H  0.00132997  0.13352931  0.17618796     0.16200
O673        O  0.85804026  0.01167129  0.16954768    -0.59800
H674        H  0.84396915  0.03843103  0.19431571     0.14700
H675        H  0.95361381  0.13129499  0.25007095     0.46500
H676        H  0.00263986  0.14967490  0.20685985     0.41900
H677        H  0.85948793  0.98524920  0.17327013     0.45300
H678        H  0.86599247  0.15292528  0.19415442     0.36800
C679        C  0.02644026  0.27164620  0.29799774    -0.27400
C680        C  0.03475702  0.28627050  0.28355587     0.02200
C681        C  0.07927672  0.31928554  0.27944513     0.30300
C682        C  0.11459257  0.33621199  0.28966329    -0.19200
C683        C  0.10604428  0.32111092  0.30403896    -0.28600
C684        C  0.06136737  0.28916953  0.30820241     0.44300
C685        C  0.99630357  0.26537912  0.27310787     0.05500
O686        O  0.08795221  0.33704913  0.26574146    -0.57100
H687        H  0.14850638  0.36197498  0.28644626     0.18400
O688        O  0.05186040  0.27377539  0.32218064    -0.63800
H689        H  0.99260199  0.24613251  0.30138538     0.16900
C690        C  0.99845991  0.24410920  0.26037096     0.29100
C691        C  0.95905931  0.21708861  0.25229283    -0.24700
C692        C  0.91581969  0.20633839  0.25745575    -0.24000
C693        C  0.91520470  0.23334260  0.26910082     0.40600
C694        C  0.95503812  0.26219078  0.27674583    -0.26500
O695        O  0.03791159  0.24576719  0.25646144    -0.58400
H696        H  0.96316422  0.20320785  0.24235017     0.16200
O697        O  0.87538563  0.22969398  0.27369700    -0.59800
H698        H  0.95302091  0.27992479  0.28616653     0.14700
H699        H  0.03782287  0.28999359  0.32665052     0.46500
H700        H  0.04729836  0.26278516  0.24721689     0.41900
H701        H  0.86750504  0.21248556  0.28288737     0.45300
H702        H  0.11017109  0.32985727  0.26153014     0.36800
C703        C  0.83844204  0.08535612  0.28462269    -0.27400
C704        C  0.80013591  0.04593127  0.27963601     0.02200
C705        C  0.78374610  0.04678226  0.26576934     0.30300
C706        C  0.80534730  0.08658851  0.25739220    -0.19200
C707        C  0.84522918  0.12637171  0.26209919    -0.28600
C708        C  0.86230593  0.12388855  0.27595501     0.44300
C709        C  0.77897705  0.00465169  0.28911310     0.05500
O710        O  0.74752844  0.00856885  0.26005093    -0.57100
H711        H  0.79161631  0.08588848  0.24680015     0.18400
O712        O  0.90451762  0.15596290  0.28073903    -0.63800
H713        H  0.85158597  0.08601520  0.29530861     0.16900
C714        C  0.80630416  0.99279926  0.29726712     0.29100
C715        C  0.78706231  0.95957691  0.30799331    -0.24700
C716        C  0.74014496  0.93456636  0.31018801    -0.24000
C717        C  0.71230208  0.94405701  0.30142122     0.40600
C718        C  0.73171385  0.97920314  0.29116591    -0.26500
O719        O  0.85230199  0.01444637  0.29518218    -0.58400
H720        H  0.80941817  0.95498051  0.31499574     0.16200
O721        O  0.66616634  0.92059780  0.30326602    -0.59800
H722        H  0.70979347  0.98762024  0.28522980     0.14700
H723        H  0.89985665  0.16722394  0.29009436     0.46500
H724        H  0.85663702  0.99806112  0.28706440     0.41900
H725        H  0.65522161  0.89163228  0.29799755     0.45300
H726        H  0.76097401  0.99341417  0.25453042     0.36800
C727        C  0.93113345  0.86581321  0.22642036    -0.27400
C728        C  0.91334438  0.84455857  0.21310724     0.02200
C729        C  0.88362613  0.79753805  0.21281973     0.30300
C730        C  0.87414617  0.77208782  0.22545527    -0.19200
C731        C  0.89567631  0.79197089  0.23876372    -0.28600
C732        C  0.92165065  0.84021826  0.23918639     0.44300
C733        C  0.92446401  0.87104366  0.19948704     0.05500
O734        O  0.86334704  0.77591834  0.20014896    -0.57100
H735        H  0.84940430  0.73641600  0.22452131     0.18400
O736        O  0.93979303  0.86263140  0.25193449    -0.63800
H737        H  0.95295563  0.90233604  0.22690443     0.16900
C738        C  0.91136700  0.90339074  0.19734417     0.29100
C739        C  0.91802584  0.92454309  0.18386381    -0.24700
C740        C  0.93846702  0.91454236  0.17235244    -0.24000
C741        C  0.95268574  0.88289825  0.17468053     0.40600
C742        C  0.94542291  0.86136677  0.18811167    -0.26500
O743        O  0.89020150  0.91306926  0.20816938    -0.58400
H744        H  0.90749275  0.94924047  0.18248385     0.16200
O745        O  0.97358393  0.87254304  0.16393912    -0.59800
H746        H  0.95580403  0.83658797  0.18962886     0.14700
H747        H  0.91962414  0.87388049  0.25510473     0.46500
H748        H  0.91438292  0.94129919  0.21270611     0.41900
H749        H  0.94858924  0.84747111  0.15841019     0.45300
H750        H  0.83510112  0.77721985  0.19956103     0.36800
C751        C  0.07744927  0.78074727  0.28305830    -0.27400
C752        C  0.05359783  0.80393067  0.28285621     0.02200
C753        C  0.06659786  0.84115111  0.29207982     0.30300
C754        C  0.10224373  0.85392994  0.30174894    -0.19200
C755        C  0.12620231  0.83072763  0.30211904    -0.28600
C756        C  0.11376127  0.79400815  0.29261306     0.44300
C757        C  0.01355482  0.78810755  0.27359147     0.05500
O758        O  0.04321948  0.86386835  0.29216580    -0.57100
H759        H  0.11040259  0.88132967  0.30926020     0.18400
O760        O  0.13732819  0.77147111  0.29247034    -0.63800
H761        H  0.06758155  0.75211690  0.27591428     0.16900
C762        C  0.01597595  0.81091389  0.26078847     0.29100
C763        C  0.97628275  0.80045386  0.25341473    -0.24700
C764        C  0.93305932  0.76904540  0.25911597    -0.24000
C765        C  0.93181071  0.74250428  0.27117658     0.40600
C766        C  0.97183089  0.75248915  0.27829525    -0.26500
O767        O  0.05694228  0.84484317  0.25570203    -0.58400
H768        H  0.98023220  0.81801687  0.24338523     0.16200
O769        O  0.89136830  0.70823838  0.27653071    -0.59800
H770        H  0.96998244  0.73394409  0.28799892     0.14700
H771        H  0.11656904  0.74130626  0.29677266     0.46500
H772        H  0.07029250  0.82908888  0.25048238     0.41900
H773        H  0.88701169  0.71891577  0.28600990     0.45300
H774        H  0.06010622  0.88975507  0.28547049     0.36800
C775        C  0.81453228  0.85471205  0.30242284    -0.27400
C776        C  0.78892075  0.81985806  0.29232751     0.02200
C777        C  0.74103418  0.79903213  0.29292906     0.30300
C778        C  0.72062122  0.81491025  0.30270922    -0.19200
C779        C  0.74670285  0.84951037  0.31262516    -0.28600
C780        C  0.79368526  0.86723241  0.31298383     0.44300
C781        C  0.81293517  0.80410558  0.28220843     0.05500
O782        O  0.71372284  0.76073979  0.28500358    -0.57100
H783        H  0.68400571  0.79871469  0.30298679     0.18400
O784        O  0.81949884  0.89555158  0.32396060    -0.63800
H785        H  0.85114051  0.87185278  0.30252496     0.16900
C786        C  0.79871464  0.78951242  0.26786718     0.29100
C787        C  0.82174764  0.77387192  0.25918815    -0.24700
C788        C  0.86254423  0.77658301  0.26366047    -0.24000
C789        C  0.87953102  0.79684861  0.27748105     0.40600
C790        C  0.85322895  0.80665347  0.28674946    -0.26500
O791        O  0.76399758  0.79265360  0.26179298    -0.58400
H792        H  0.80871541  0.76149244  0.24845641     0.16200
O793        O  0.92360837  0.81268137  0.28154960    -0.59800
H794        H  0.86626667  0.81853077  0.29749657     0.14700
H795        H  0.81628076  0.87521345  0.33206452     0.46500
H796        H  0.77797185  0.82458198  0.25850439     0.41900
H797        H  0.92240633  0.79907279  0.29112173     0.45300
H798        H  0.69454210  0.76824198  0.27896538     0.36800
C799        C  0.22715218  0.14723767  0.20812515    -0.27400
C800        C  0.18028632  0.11897473  0.20950579     0.02200
C801        C  0.16172431  0.10421896  0.22335261     0.30300
C802        C  0.19015160  0.11649880  0.23544441    -0.19200
C803        C  0.23798458  0.14210292  0.23416375    -0.28600
C804        C  0.25582206  0.16010293  0.22016328     0.44300
C805        C  0.15143411  0.10432616  0.19635432     0.05500
O806        O  0.11576621  0.07730406  0.22518710    -0.57100
H807        H  0.17471836  0.10435445  0.24595126     0.18400
O808        O  0.30071313  0.19144308  0.21792093    -0.63800
H809        H  0.24192826  0.15970438  0.19756048     0.16900
C810        C  0.15298267  0.13600915  0.18632133     0.29100
C811        C  0.12671847  0.12100390  0.17370087    -0.24700
C812        C  0.09884478  0.07443241  0.17077002    -0.24000
C813        C  0.09702780  0.04283019  0.18098719     0.40600
C814        C  0.12334744  0.05791792  0.19353280    -0.26500
O815        O  0.17876286  0.18168191  0.18904032    -0.58400
H816        H  0.12815546  0.14600540  0.16622282     0.16200
O817        O  0.06965081  0.99698940  0.17890204    -0.59800
H818        H  0.12208123  0.03311115  0.20106694     0.14700
H819        H  0.30194692  0.22015661  0.21534794     0.46500
H820        H  0.20487761  0.19319506  0.18232191     0.41900
H821        H  0.04027691  0.98901860  0.18346239     0.45300
H822        H  0.10475999  0.09865204  0.22692468     0.36800
C823        C  0.21986824  0.02742075  0.26182620    -0.27400
C824        C  0.23900049  0.03558781  0.27567370     0.02200
C825        C  0.27105554  0.08036119  0.27956493     0.30300
C826        C  0.28079482  0.11615235  0.27014743    -0.19200
C827        C  0.25796091  0.10916346  0.25679427    -0.28600
C828        C  0.22994397  0.06321848  0.25225033     0.44300
C829        C  0.22634796  0.99714162  0.28581233     0.05500
O830        O  0.29399358  0.08936400  0.29242545    -0.57100
H831        H  0.30479699  0.15031284  0.27370175     0.18400
O832        O  0.21317883  0.05216712  0.23847582    -0.63800
H833        H  0.19686128  0.99287996  0.25835509     0.16900
C834        C  0.21126286  0.99764927  0.29998682     0.29100
C835        C  0.20163125  0.96220593  0.30956440    -0.24700
C836        C  0.20532728  0.92502582  0.30513587    -0.24000
C837        C  0.21913245  0.92377778  0.29087466     0.40600
C838        C  0.22938315  0.95954165  0.28133256    -0.26500
O839        O  0.20537034  0.03241546  0.30456793    -0.58400
H840        H  0.19062769  0.96339532  0.32045720     0.16200
O841        O  0.22350563  0.88812873  0.28624674    -0.59800
H842        H  0.24067878  0.95836268  0.27048411     0.14700
H843        H  0.23046445  0.03961875  0.23371438     0.46500
H844        H  0.17557564  0.02534424  0.30063201     0.41900
H845        H  0.25489384  0.89649716  0.28881571     0.45300
H846        H  0.28422671  0.10732856  0.29821521     0.36800
C847        C  0.24503331  0.24881298  0.26110115    -0.27400
C848        C  0.22400072  0.23300686  0.27456512     0.02200
C849        C  0.21536538  0.19034335  0.27931718     0.30300
C850        C  0.22748337  0.16451253  0.27076581    -0.19200
C851        C  0.25198824  0.18129670  0.25766915    -0.28600
C852        C  0.25906217  0.22380156  0.25275000     0.44300
C853        C  0.21138315  0.26099978  0.28367075     0.05500
O854        O  0.19527115  0.17337211  0.29245552    -0.57100
H855        H  0.21663767  0.13082072  0.27464793     0.18400
O856        O  0.27883637  0.24082616  0.23958423    -0.63800
H857        H  0.25065536  0.28084951  0.25696598     0.16900
C858        C  0.24281886  0.30705781  0.28658793     0.29100
C859        C  0.23151056  0.33155973  0.29614231    -0.24700
C860        C  0.18944738  0.31077507  0.30329110    -0.24000
C861        C  0.15782608  0.26487136  0.30026829     0.40600
C862        C  0.16844755  0.24087012  0.29027835    -0.26500
O863        O  0.28540533  0.32808633  0.28062965    -0.58400
H864        H  0.25641919  0.36671370  0.29837157     0.16200
O865        O  0.11729859  0.24234680  0.30749140    -0.59800
H866        H  0.14342517  0.20576566  0.28806240     0.14700
H867        H  0.30779529  0.26919932  0.24166203     0.46500
H868        H  0.30362093  0.32051518  0.28711245     0.41900
H869        H  0.12418378  0.23260898  0.31674517     0.45300
H870        H  0.22056993  0.18537866  0.29948118     0.36800
C871        C  0.43926048  0.96929850  0.56550165    -0.27400
C872        C  0.46091181  0.94442103  0.56767078     0.02200
C873        C  0.50220951  0.96496688  0.57520050     0.30300
C874        C  0.52147617  0.00962404  0.58027465    -0.19200
C875        C  0.49989351  0.03531389  0.57839453    -0.28600
C876        C  0.45822477  0.01401028  0.57063635     0.44300
C877        C  0.44198666  0.89844160  0.56110540     0.05500
O878        O  0.52486056  0.94202539  0.57733521    -0.57100
H879        H  0.55462270  0.02419714  0.58511534     0.18400
O880        O  0.43686699  0.03755909  0.56734805    -0.63800
H881        H  0.40808748  0.95453062  0.55933841     0.16900
C882        C  0.39792501  0.86279388  0.56438269     0.29100
C883        C  0.38026629  0.82046515  0.55748176    -0.24700
C884        C  0.40589085  0.81281688  0.54716605    -0.24000
C885        C  0.45040926  0.84854465  0.54410260     0.40600
C886        C  0.46790414  0.89065689  0.55102082    -0.26500
O887        O  0.37219016  0.86879024  0.57452051    -0.58400
H888        H  0.34610399  0.79376974  0.56005631     0.16200
O889        O  0.47621743  0.84383648  0.53367001    -0.59800
H890        H  0.50156990  0.91788248  0.54817631     0.14700
H891        H  0.40734633  0.02181230  0.57251206     0.46500
H892        H  0.35051659  0.87383795  0.56891604     0.41900
H893        H  0.49640726  0.83602054  0.53898460     0.45300
H894        H  0.51262906  0.92526973  0.58651864     0.36800
C895        C  0.38740207  0.55313473  0.56505733    -0.27400
C896        C  0.43463418  0.57193355  0.56576539     0.02200
C897        C  0.46303304  0.61421319  0.55912769     0.30300
C898        C  0.44415905  0.63599345  0.55149194    -0.19200
C899        C  0.39698905  0.61602097  0.55010556    -0.28600
C900        C  0.36854184  0.57467689  0.55725367     0.44300
C901        C  0.45367283  0.54476621  0.57180053     0.05500
O902        O  0.50911991  0.63234769  0.55884511    -0.57100
H903        H  0.46664888  0.66732630  0.54587392     0.18400
O904        O  0.32229612  0.55504075  0.55666796    -0.63800
H905        H  0.36501498  0.52080637  0.57017059     0.16900
C906        C  0.48781014  0.56205878  0.58239941     0.29100
C907        C  0.50804661  0.53703077  0.58667015    -0.24700
C908        C  0.49600982  0.49484535  0.58019816    -0.24000
C909        C  0.45870273  0.47628725  0.57045200     0.40600
C910        C  0.43845192  0.50123359  0.56632673    -0.26500
O911        O  0.50020054  0.60255277  0.58908627    -0.58400
H912        H  0.53281375  0.55106003  0.59523232     0.16200
O913        O  0.44199542  0.43365887  0.56475506    -0.59800
H914        H  0.41141060  0.48683137  0.55841350     0.14700
H915        H  0.31222673  0.53141864  0.54907475     0.46500
H916        H  0.53267272  0.62298905  0.58669290     0.41900
H917        H  0.44808549  0.43794222  0.55422353     0.45300
H918        H  0.52188856  0.66050855  0.56469972     0.36800
C919        C  0.15420413  0.56172527  0.56495766    -0.27400
C920        C  0.12320564  0.57641690  0.56247174     0.02200
C921        C  0.13519105  0.61221735  0.55265330     0.30300
C922        C  0.17716804  0.63278285  0.54564976    -0.19200
C923        C  0.20799095  0.61776491  0.54785332    -0.28600
C924        C  0.19621859  0.58197870  0.55773092     0.44300
C925        C  0.07795429  0.55410621  0.56974263     0.05500
O926        O  0.10538562  0.62648104  0.54940841    -0.57100
H927        H  0.18473433  0.65958065  0.53797157     0.18400
O928        O  0.22497925  0.56592790  0.56024275    -0.63800
H929        H  0.14573638  0.53434605  0.57248607     0.16900
C930        C  0.04747276  0.50721591  0.56857489     0.29100
C931        C  0.00307721  0.48820406  0.57387533    -0.24700
C932        C  0.98709812  0.51477520  0.58053786    -0.24000
C933        C  0.01868918  0.56237115  0.58168995     0.40600
C934        C  0.06329560  0.58084783  0.57660933    -0.26500
O935        O  0.05990289  0.47982165  0.56160638    -0.58400
H936        H  0.98013788  0.45219086  0.57230051     0.16200
O937        O  0.00570879  0.59240088  0.58603284    -0.59800
H938        H  0.08613669  0.61717995  0.57740288     0.14700
H939        H  0.24655733  0.58649288  0.56765369     0.46500
H940        H  0.05307923  0.48099656  0.55127051     0.41900
H941        H  0.02410095  0.60779116  0.59473514     0.45300
H942        H  0.08547984  0.60551274  0.54175557     0.36800
C943        C  0.52004803  0.06721653  0.42991583    -0.27400
C944        C  0.54089201  0.09940311  0.41901046     0.02200
C945        C  0.53903708  0.08461798  0.40474851     0.30300
C946        C  0.51782899  0.03793565  0.40171797    -0.19200
C947        C  0.49978066  0.00477248  0.41282365    -0.28600
C948        C  0.49851489  0.02074868  0.42702189     0.44300
C949        C  0.56359311  0.14799726  0.42311119     0.05500
O950        O  0.55810456  0.11541923  0.39372821    -0.57100
H951        H  0.51675774  0.02746537  0.39060085     0.18400
O952        O  0.47502487  0.99201588  0.43820450    -0.63800
H953        H  0.51981957  0.07827570  0.44088545     0.16900
C954        C  0.53776276  0.16660499  0.42816220     0.29100
C955        C  0.55879028  0.20807407  0.43560130    -0.24700
C956        C  0.60558849  0.23110910  0.43846016    -0.24000
C957        C  0.63190037  0.21412853  0.43237384     0.40600
C958        C  0.61082999  0.17286177  0.42477782    -0.26500
O959        O  0.49156152  0.14328301  0.42647754    -0.58400
H960        H  0.53782088  0.22045216  0.44004447     0.16200
O961        O  0.67790296  0.23622862  0.43443563    -0.59800
H962        H  0.63107870  0.15879078  0.42101294     0.14700
H963        H  0.44825990  0.99523207  0.43988229     0.46500
H964        H  0.47919444  0.12676802  0.43569803     0.41900
H965        H  0.69068233  0.26158688  0.42739896     0.45300
H966        H  0.53315407  0.11895600  0.38986075     0.36800
C967        C  0.48381211  0.89881743  0.44465542    -0.27400
C968        C  0.43841071  0.86614911  0.44711717     0.02200
C969        C  0.40564075  0.86008445  0.43686435     0.30300
C970        C  0.41823536  0.88754543  0.42455714    -0.19200
C971        C  0.46372884  0.92237077  0.42221434    -0.28600
C972        C  0.49670908  0.92647019  0.43240011     0.44300
C973        C  0.42554646  0.83936480  0.46061564     0.05500
O974        O  0.36110556  0.82696597  0.43870514    -0.57100
H975        H  0.39189786  0.88021544  0.41681307     0.18400
O976        O  0.54179781  0.95802816  0.43050798    -0.63800
H977        H  0.50944307  0.90367018  0.45245597     0.16900
C978        C  0.44465954  0.81284900  0.46429162     0.29100
C979        C  0.43240986  0.78837019  0.47724073    -0.24700
C980        C  0.40143477  0.79022925  0.48680849    -0.24000
C981        C  0.38287902  0.81751764  0.48314161     0.40600
C982        C  0.39479549  0.84148713  0.47011300    -0.26500
O983        O  0.47382985  0.80913679  0.45498806    -0.58400
H984        H  0.44684430  0.76740194  0.47967269     0.16200
O985        O  0.35238686  0.82046111  0.49201992    -0.59800
H986        H  0.38024544  0.86221764  0.46746094     0.14700
H987        H  0.54946137  0.98121073  0.43812914     0.46500
H988        H  0.50438309  0.82858699  0.45915260     0.41900
H989        H  0.37101872  0.84661386  0.49847584     0.45300
H990        H  0.35835599  0.79938196  0.43419611     0.36800
C991        C  0.52934817  0.88870255  0.38877649    -0.27400
C992        C  0.57231539  0.92356318  0.38468562     0.02200
C993        C  0.58765241  0.96777444  0.38964258     0.30300
C994        C  0.55907613  0.97711849  0.39794429    -0.19200
C995        C  0.51367045  0.94317194  0.40095900    -0.28600
C996        C  0.50035575  0.89778203  0.39689568     0.44300
C997        C  0.59982470  0.91340923  0.37471291     0.05500
O998        O  0.62979381  0.00261701  0.38579659    -0.57100
H999        H  0.57334408  0.01135088  0.40185493     0.18400
O1000       O  0.45829945  0.86207524  0.40046913    -0.63800
H1001       H  0.51770677  0.85420135  0.38535272     0.16900
C1002       C  0.64070400  0.91687492  0.37917743     0.29100
C1003       C  0.66588791  0.90699157  0.36943383    -0.24700
C1004       C  0.64989975  0.89194068  0.35537342    -0.24000
C1005       C  0.60924547  0.88893449  0.35089478     0.40600
C1006       C  0.58447361  0.89951853  0.36054255    -0.26500
O1007       O  0.65615771  0.92966243  0.39303118    -0.58400
H1008       H  0.69802215  0.91123092  0.37284106     0.16200
O1009       O  0.59393393  0.87647393  0.33701098    -0.59800
H1010       H  0.55324329  0.89710204  0.35694657     0.14700
H1011       H  0.44175702  0.85029241  0.39122580     0.46500
H1012       H  0.63977708  0.90150523  0.39884141     0.41900
H1013       H  0.57511511  0.84296359  0.33721977     0.45300
H1014       H  0.64917279  0.00809907  0.39439556     0.36800
C1015       C  0.33499317  0.92227459  0.35504906    -0.27400
C1016       C  0.32518574  0.90894346  0.36953508     0.02200
C1017       C  0.27928942  0.88372130  0.37390273     0.30300
C1018       C  0.24449677  0.87120697  0.36369880    -0.19200
C1019       C  0.25481651  0.88092775  0.34895794    -0.28600
C1020       C  0.30080639  0.90694599  0.34476824     0.44300
C1021       C  0.36356439  0.91994737  0.37951332     0.05500
O1022       O  0.26800460  0.87006522  0.38797099    -0.57100
H1023       H  0.20950057  0.85242574  0.36722434     0.18400
O1024       O  0.31299015  0.91705205  0.33052377    -0.63800
H1025       H  0.36972908  0.94353115  0.35149885     0.16900
C1026       C  0.39971616  0.91451356  0.37494692     0.29100
C1027       C  0.43711067  0.92770292  0.38387571    -0.24700
C1028       C  0.43848103  0.94257393  0.39823833    -0.24000
C1029       C  0.40232391  0.94913026  0.40257611     0.40600
C1030       C  0.36568934  0.93795386  0.39329418    -0.26500
O1031       O  0.39801879  0.89436010  0.36192275    -0.58400
H1032       H  0.46470388  0.92556279  0.37914954     0.16200
O1033       O  0.40177196  0.96541971  0.41605843    -0.59800
H1034       H  0.33903333  0.94384472  0.39689677     0.14700
H1035       H  0.31436325  0.89072448  0.32667895     0.46500
H1036       H  0.42275838  0.91823100  0.35596393     0.41900
H1037       H  0.40952160  0.99723738  0.41452567     0.45300
H1038       H  0.26358857  0.83915412  0.38833963     0.36800
C1039       C  0.49556818  0.46065575  0.41999416    -0.27400
C1040       C  0.54236897  0.47914416  0.41829566     0.02200
C1041       C  0.56621058  0.51801900  0.40955928     0.30300
C1042       C  0.54423373  0.54028365  0.40415070    -0.19200
C1043       C  0.49924699  0.52670687  0.40827203    -0.28600
C1044       C  0.47411288  0.48384290  0.41525406     0.44300
C1045       C  0.56556039  0.45950508  0.42678211     0.05500
O1046       O  0.61145589  0.53584192  0.40675149    -0.57100
H1047       H  0.56359238  0.56926928  0.39725186     0.18400
O1048       O  0.42894405  0.46557958  0.41836443    -0.63800
H1049       H  0.47581107  0.42923600  0.42590142     0.16900
C1050       C  0.55628868  0.45065058  0.44169546     0.29100
C1051       C  0.57585183  0.43027903  0.44962173    -0.24700
C1052       C  0.60632974  0.41970071  0.44318256    -0.24000
C1053       C  0.61695951  0.42953800  0.42843019     0.40600
C1054       C  0.59643314  0.44907621  0.42029963    -0.26500
O1055       O  0.52833264  0.46222089  0.44873166    -0.58400
H1056       H  0.56776377  0.42343407  0.46100669     0.16200
O1057       O  0.64639115  0.41919749  0.42179986    -0.59800
H1058       H  0.60400336  0.45524578  0.40888159     0.14700
H1059       H  0.42722869  0.46924083  0.42891799     0.46500
H1060       H  0.54837573  0.49413172  0.45186525     0.41900
H1061       H  0.62715780  0.38787311  0.41810412     0.45300
H1062       H  0.62746636  0.55852953  0.41448679     0.36800
C1063       C  0.46294863  0.57309225  0.44729058    -0.27400
C1064       C  0.43389556  0.59047435  0.44684214     0.02200
C1065       C  0.42278762  0.60090307  0.43336195     0.30300
C1066       C  0.43878695  0.59160997  0.42059827    -0.19200
C1067       C  0.46438316  0.56962911  0.42074714    -0.28600
C1068       C  0.47937425  0.56403662  0.43460258     0.44300
C1069       C  0.41788066  0.60007353  0.46060746     0.05500
O1070       O  0.39756558  0.62163392  0.43257115    -0.57100
H1071       H  0.42940610  0.59998846  0.41040355     0.18400
O1072       O  0.51108597  0.55121438  0.43614019    -0.63800
H1073       H  0.47365722  0.56703145  0.45764095     0.16900
C1074       C  0.37144487  0.57876748  0.46404297     0.29100
C1075       C  0.35746695  0.58876236  0.47711121    -0.24700
C1076       C  0.38929705  0.61969534  0.48706824    -0.24000
C1077       C  0.43594934  0.63999318  0.48369960     0.40600
C1078       C  0.44971442  0.63010431  0.47061563    -0.26500
O1079       O  0.33945056  0.54802197  0.45471888    -0.58400
H1080       H  0.32150452  0.57253280  0.47936174     0.16200
O1081       O  0.46859316  0.67064526  0.49287966    -0.59800
H1082       H  0.48558818  0.64650908  0.46817507     0.14700
H1083       H  0.53891579  0.57840253  0.43969059     0.46500
H1084       H  0.33484791  0.51815136  0.45768822     0.41900
H1085       H  0.47718546  0.65245452  0.49900358     0.45300
H1086       H  0.36712649  0.59773140  0.42927717     0.36800
C1087       C  0.29732232  0.40277703  0.36602952    -0.27400
C1088       C  0.31990905  0.45015625  0.36746992     0.02200
C1089       C  0.30502446  0.47470989  0.35930312     0.30300
C1090       C  0.26869698  0.45211866  0.34964590    -0.19200
C1091       C  0.24616884  0.40473256  0.34806082    -0.28600
C1092       C  0.26059974  0.38004233  0.35646721     0.44300
C1093       C  0.35873858  0.47402003  0.37758776     0.05500
O1094       O  0.32655363  0.52102301  0.36044940    -0.57100
H1095       H  0.25853395  0.47178817  0.34318892     0.18400
O1096       O  0.23903565  0.33369213  0.35541428    -0.63800
H1097       H  0.30816822  0.38341625  0.37235573     0.16900
C1098       C  0.35207042  0.48398490  0.39176577     0.29100
C1099       C  0.38919295  0.50866253  0.40099370    -0.24700
C1100       C  0.43442056  0.52580737  0.39623617    -0.24000
C1101       C  0.44023262  0.51325926  0.38206165     0.40600
C1102       C  0.40283354  0.48811711  0.37292996    -0.26500
O1103       O  0.30922442  0.47047567  0.39664693    -0.58400
H1104       H  0.38163828  0.51339979  0.41194949     0.16200
O1105       O  0.48279467  0.52726874  0.37678250    -0.59800
H1106       H  0.40841300  0.48026579  0.36204597     0.14700
H1107       H  0.21256744  0.32220147  0.36199439     0.46500
H1108       H  0.29752176  0.43955193  0.40056219     0.41900
H1109       H  0.48617864  0.50024739  0.37732136     0.45300
H1110       H  0.31037439  0.52682088  0.36828966     0.36800
C1111       C  0.57988252  0.67594149  0.39560485    -0.27400
C1112       C  0.56307986  0.68837084  0.38370916     0.02200
C1113       C  0.51689616  0.66020545  0.38021420     0.30300
C1114       C  0.49060988  0.61837358  0.38707847    -0.19200
C1115       C  0.50810939  0.60330061  0.39822574    -0.28600
C1116       C  0.55215340  0.63557526  0.40332338     0.44300
C1117       C  0.59336652  0.72896707  0.37451446     0.05500
O1118       O  0.49658489  0.67332048  0.37011243    -0.57100
H1119       H  0.45553374  0.59864375  0.38380435     0.18400
O1120       O  0.56913127  0.62762306  0.41564243    -0.63800
H1121       H  0.61478091  0.69717298  0.39894904     0.16900
C1122       C  0.62765792  0.77082604  0.38029374     0.29100
C1123       C  0.65572523  0.80707238  0.37102216    -0.24700
C1124       C  0.64874184  0.80337490  0.35599564    -0.24000
C1125       C  0.61416487  0.76206082  0.35030275     0.40600
C1126       C  0.58800331  0.72527549  0.35940121    -0.26500
O1127       O  0.63401286  0.77694772  0.39493157    -0.58400
H1128       H  0.68314708  0.83786802  0.37562087     0.16200
O1129       O  0.60606038  0.75700210  0.33571258    -0.59800
H1130       H  0.56334260  0.69342874  0.35448962     0.14700
H1131       H  0.56645831  0.64676091  0.42317768     0.46500
H1132       H  0.61725341  0.79219763  0.39789801     0.41900
H1133       H  0.58612103  0.76954815  0.33381892     0.45300
H1134       H  0.48973260  0.69460280  0.37526829     0.36800
C1135       C  0.88224046  0.47490555  0.44507039    -0.27400
C1136       C  0.88662179  0.46227265  0.43099509     0.02200
C1137       C  0.84746051  0.42810823  0.42390469     0.30300
C1138       C  0.80520855  0.40729526  0.43093506    -0.19200
C1139       C  0.80108599  0.42111017  0.44484501    -0.28600
C1140       C  0.84005538  0.45522460  0.45188268     0.44300
C1141       C  0.93249859  0.48394453  0.42419753     0.05500
O1142       O  0.85002323  0.41482848  0.41011935    -0.57100
H1143       H  0.77558069  0.38077513  0.42546232     0.18400
O1144       O  0.83774609  0.46753785  0.46583949    -0.63800
H1145       H  0.91187489  0.49962359  0.45098701     0.16900
C1146       C  0.96265086  0.53107825  0.42502059     0.29100
C1147       C  0.00687634  0.55014889  0.41970192    -0.24700
C1148       C  0.02186836  0.52419501  0.41216294    -0.24000
C1149       C  0.99181081  0.47606829  0.41223671     0.40600
C1150       C  0.94783236  0.45700082  0.41790337    -0.26500
O1151       O  0.94931562  0.55913569  0.43098597    -0.58400
H1152       H  0.02945369  0.58635250  0.42098903     0.16200
O1153       O  0.00519735  0.44646770  0.40780163    -0.59800
H1154       H  0.92623447  0.42040905  0.41795637     0.14700
H1155       H  0.83579029  0.49535605  0.46500601     0.46500
H1156       H  0.93347226  0.56511115  0.42309557     0.41900
H1157       H  0.01239596  0.43560802  0.41677076     0.45300
H1158       H  0.84864774  0.43729108  0.40373210     0.36800
C1159       C  0.14867614  0.62549511  0.43845462    -0.27400
C1160       C  0.14780652  0.59293438  0.44783378     0.02200
C1161       C  0.12082994  0.54686153  0.44407708     0.30300
C1162       C  0.09652771  0.53438473  0.43111338    -0.19200
C1163       C  0.10021834  0.56688186  0.42091563    -0.28600
C1164       C  0.12567223  0.61331061  0.42518759     0.44300
C1165       C  0.17533828  0.60752024  0.46138466     0.05500
O1166       O  0.11851986  0.51349946  0.45284227    -0.57100
H1167       H  0.07584979  0.49859121  0.42869805     0.18400
O1168       O  0.12578679  0.64709751  0.41722772    -0.63800
H1169       H  0.16704446  0.66099052  0.44149391     0.16900
C1170       C  0.22095312  0.64336688  0.46123550     0.29100
C1171       C  0.24642553  0.65639909  0.47397691    -0.24700
C1172       C  0.22788159  0.63322694  0.48696087    -0.24000
C1173       C  0.18250715  0.59753810  0.48723211     0.40600
C1174       C  0.15642462  0.58535204  0.47457422    -0.26500
O1175       O  0.24145629  0.66526635  0.44862593    -0.58400
H1176       H  0.28143274  0.68381886  0.47360257     0.16200
O1177       O  0.16318533  0.57470798  0.49982746    -0.59800
H1178       H  0.12123140  0.55856397  0.47510966     0.14700
H1179       H  0.15728444  0.66619467  0.41366612     0.46500
H1180       H  0.25426107  0.64754107  0.44439846     0.41900
H1181       H  0.15302167  0.59342698  0.50495246     0.45300
H1182       H  0.14292828  0.50829770  0.44936989     0.36800
C1183       C  0.07535505  0.64530859  0.38236895    -0.27400
C1184       C  0.11817956  0.66423906  0.37561104     0.02200
C1185       C  0.14362096  0.64316122  0.37861196     0.30300
C1186       C  0.12899920  0.60920630  0.38914486    -0.19200
C1187       C  0.08528079  0.58879300  0.39552656    -0.28600
C1188       C  0.05721638  0.60573029  0.39078585     0.44300
C1189       C  0.13533432  0.70479109  0.36549699     0.05500
O1190       O  0.18238140  0.65409422  0.37110968    -0.57100
H1191       H  0.15193812  0.59745178  0.39190965     0.18400
O1192       O  0.01184062  0.58426358  0.39376492    -0.63800
H1193       H  0.05447663  0.66022731  0.38109374     0.16900
C1194       C  0.10535715  0.71418250  0.35775748     0.29100
C1195       C  0.12220607  0.75321982  0.34921264    -0.24700
C1196       C  0.16883415  0.78170389  0.34649309    -0.24000
C1197       C  0.19879980  0.77055717  0.35320974     0.40600
C1198       C  0.18238275  0.73494817  0.36332879    -0.26500
O1199       O  0.05953744  0.68398451  0.35745748    -0.58400
H1200       H  0.09784977  0.76005254  0.34413078     0.16200
O1201       O  0.24401341  0.79318069  0.34979004    -0.59800
H1202       H  0.20728236  0.73112559  0.36927463     0.14700
H1203       H  0.99685476  0.56303508  0.38559677     0.46500
H1204       H  0.04520334  0.70010119  0.36185122     0.41900
H1205       H  0.24638606  0.77789251  0.34099938     0.45300
H1206       H  0.17199560  0.63451994  0.36240308     0.36800
C1207       C  0.07519621  0.47233276  0.37634220    -0.27400
C1208       C  0.11340502  0.46962231  0.37996992     0.02200
C1209       C  0.13663326  0.48978174  0.39280453     0.30300
C1210       C  0.12222579  0.51315646  0.40166898    -0.19200
C1211       C  0.08383623  0.51671801  0.39817934    -0.28600
C1212       C  0.06083635  0.49604041  0.38510110     0.44300
C1213       C  0.13129257  0.44977294  0.36952076     0.05500
O1214       O  0.17608312  0.49058090  0.39607377    -0.57100
H1215       H  0.14396392  0.53126322  0.41066495     0.18400
O1216       O  0.02421536  0.49910391  0.38076736    -0.63800
H1217       H  0.05720005  0.45718706  0.36637872     0.16900
C1218       C  0.13629643  0.41261551  0.37315103     0.29100
C1219       C  0.15144495  0.39359308  0.36269927    -0.24700
C1220       C  0.16177429  0.41134145  0.34864736    -0.24000
C1221       C  0.15796652  0.44923981  0.34517427     0.40600
C1222       C  0.14302933  0.46828409  0.35559016    -0.26500
O1223       O  0.12359839  0.39293461  0.38654515    -0.58400
H1224       H  0.15340693  0.36385825  0.36538921     0.16200
O1225       O  0.16884029  0.46781221  0.33159216    -0.59800
H1226       H  0.14001798  0.49731381  0.35273095     0.14700
H1227       H  0.03544320  0.52131410  0.37272660     0.46500
H1228       H  0.15213385  0.39930212  0.39133938     0.41900
H1229       H  0.13943503  0.45713903  0.32667810     0.45300
H1230       H  0.16921440  0.47153780  0.40482653     0.36800
C1231       C  0.77857899  0.20215379  0.24635122    -0.27400
C1232       C  0.79917405  0.23563957  0.23567781     0.02200
C1233       C  0.84255204  0.24754856  0.23075195     0.30300
C1234       C  0.86446847  0.22596925  0.23636539    -0.19200
C1235       C  0.84340288  0.19019023  0.24655342    -0.28600
C1236       C  0.80024571  0.17991944  0.25196242     0.44300
C1237       C  0.77480251  0.25698092  0.22926937     0.05500
O1238       O  0.86330892  0.27925936  0.22004199    -0.57100
H1239       H  0.89774733  0.23575076  0.23215765     0.18400
O1240       O  0.77886766  0.14923308  0.26285524    -0.63800
H1241       H  0.74543233  0.19331970  0.25043955     0.16900
C1242       C  0.73380476  0.23057281  0.22180848     0.29100
C1243       C  0.71337433  0.25145654  0.21460105    -0.24700
C1244       C  0.73345697  0.29898075  0.21447736    -0.24000
C1245       C  0.77373763  0.32532711  0.22247706     0.40600
C1246       C  0.79409962  0.30427951  0.22970615    -0.26500
O1247       O  0.71444454  0.18437252  0.22094243    -0.58400
H1248       H  0.68257108  0.23025407  0.20857457     0.16200
O1249       O  0.79443695  0.37170961  0.22294223    -0.59800
H1250       H  0.82559282  0.32504616  0.23546439     0.14700
H1251       H  0.78552407  0.16757955  0.27179656     0.46500
H1252       H  0.72814838  0.17905161  0.21226531     0.41900
H1253       H  0.78065674  0.37829200  0.23133762     0.45300
H1254       H  0.85421754  0.26176087  0.21089335     0.36800
C1255       C  0.85577281  0.64750159  0.23434708    -0.27400
C1256       C  0.81222606  0.61802902  0.23967291     0.02200
C1257       C  0.79434410  0.63396926  0.25032836     0.30300
C1258       C  0.81849508  0.67973460  0.25465948    -0.19200
C1259       C  0.86100087  0.71080842  0.24850322    -0.28600
C1260       C  0.88017716  0.69298477  0.23867714     0.44300
C1261       C  0.78504363  0.57191299  0.23319565     0.05500
O1262       O  0.75402755  0.60447103  0.25696598    -0.57100
H1263       H  0.80370645  0.69016519  0.26302569     0.18400
O1264       O  0.92277441  0.72028658  0.23302146    -0.63800
H1265       H  0.87050344  0.63563530  0.22634647     0.16900
C1266       C  0.74300658  0.55834316  0.22659551     0.29100
C1267       C  0.72021391  0.51727158  0.21897885    -0.24700
C1268       C  0.73904207  0.48943450  0.21747792    -0.24000
C1269       C  0.78077684  0.50256409  0.22424917     0.40600
C1270       C  0.80324770  0.54331126  0.23212293    -0.26500
O1271       O  0.72607123  0.58702932  0.22636354    -0.58400
H1272       H  0.68889544  0.50852462  0.21348700     0.16200
O1273       O  0.79976358  0.47575390  0.22327836    -0.59800
H1274       H  0.83562964  0.55325011  0.23706955     0.14700
H1275       H  0.91845101  0.72269267  0.22254172     0.46500
H1276       H  0.69764386  0.57160461  0.23209052     0.41900
H1277       H  0.82272149  0.48937816  0.21548317     0.45300
H1278       H  0.73325001  0.61583797  0.25476366     0.36800
C1279       C  0.47518661  0.29644641  0.22659703    -0.27400
C1280       C  0.45978450  0.25279846  0.23209500     0.02200
C1281       C  0.48818202  0.23427391  0.23091319     0.30300
C1282       C  0.52958291  0.25794113  0.22351064    -0.19200
C1283       C  0.54386647  0.30059480  0.21727502    -0.28600
C1284       C  0.51685815  0.32049058  0.21942288     0.44300
C1285       C  0.41269079  0.22579368  0.23786700     0.05500
O1286       O  0.47521382  0.19242282  0.23658361    -0.57100
H1287       H  0.54975135  0.24200511  0.22222208     0.18400
O1288       O  0.52948558  0.36244902  0.21391300    -0.63800
H1289       H  0.45391670  0.31133193  0.22730212     0.16900
C1290       C  0.39544935  0.24431673  0.24784447     0.29100
C1291       C  0.34941356  0.22044923  0.25161078    -0.24700
C1292       C  0.31878448  0.17807854  0.24525104    -0.24000
C1293       C  0.33774603  0.15770339  0.23649697     0.40600
C1294       C  0.38362350  0.18191629  0.23260150    -0.26500
O1295       O  0.42323066  0.28611419  0.25389830    -0.58400
H1296       H  0.33826725  0.23577363  0.25956682     0.16200
O1297       O  0.31075675  0.11552483  0.23059624    -0.59800
H1298       H  0.39602362  0.16679328  0.22493828     0.14700
H1299       H  0.54873346  0.38429515  0.22148433     0.46500
H1300       H  0.43887661  0.28056391  0.26193442     0.41900
H1301       H  0.31805702  0.09513946  0.23601715     0.45300
H1302       H  0.48450717  0.19815329  0.24687286     0.36800
C1303       C  0.91056354  0.14007262  0.09980868    -0.27400
C1304       C  0.86690867  0.11019786  0.09447300     0.02200
C1305       C  0.84909222  0.06313618  0.09600301     0.30300
C1306       C  0.87393367  0.04691081  0.10336106    -0.19200
C1307       C  0.91676391  0.07691667  0.10937514    -0.28600
C1308       C  0.93542437  0.12398677  0.10712047     0.44300
C1309       C  0.84034566  0.12909590  0.08774274     0.05500
O1310       O  0.80797622  0.03279407  0.08999918    -0.57100
H1311       H  0.85893079  0.01061799  0.10466418     0.18400
O1312       O  0.97730843  0.15495001  0.11245346    -0.63800
H1313       H  0.92506338  0.17635946  0.09865894     0.16900
C1314       C  0.79693027  0.11721682  0.09278677     0.29100
C1315       C  0.77445352  0.13834879  0.08710328    -0.24700
C1316       C  0.79540838  0.17445201  0.07703301    -0.24000
C1317       C  0.83737833  0.18295613  0.07099700     0.40600
C1318       C  0.85961535  0.16132014  0.07665566    -0.26500
O1319       O  0.77699834  0.08678539  0.10386668    -0.58400
H1320       H  0.74145516  0.12890091  0.09148459     0.16200
O1321       O  0.85671663  0.21090268  0.05931659    -0.59800
H1322       H  0.89227664  0.16967764  0.07224169     0.14700
H1323       H  0.99901186  0.15884685  0.10467882     0.46500
H1324       H  0.78901671  0.10489772  0.11283002     0.41900
H1325       H  0.85390564  0.19082132  0.05115375     0.45300
H1326       H  0.78767466  0.01621008  0.09826076     0.36800
C1327       C  0.69036549  0.25001154  0.13188331    -0.27400
C1328       C  0.73495151  0.27288305  0.12669557     0.02200
C1329       C  0.76862525  0.31002107  0.13450759     0.30300
C1330       C  0.75738651  0.32404677  0.14731272    -0.19200
C1331       C  0.71265709  0.30116147  0.15262141    -0.28600
C1332       C  0.67908724  0.26347216  0.14475860     0.44300
C1333       C  0.74594962  0.25704015  0.11323338     0.05500
O1334       O  0.81223801  0.33385739  0.12938580    -0.57100
H1335       H  0.78374184  0.35326717  0.15299229     0.18400
O1336       O  0.63493999  0.23969780  0.14940435    -0.63800
H1337       H  0.66421987  0.22120275  0.12598145     0.16900
C1338       C  0.77353805  0.23784705  0.11354408     0.29100
C1339       C  0.78282089  0.22207238  0.10080294    -0.24700
C1340       C  0.76237859  0.22176817  0.08743439    -0.24000
C1341       C  0.73734971  0.24465982  0.08720588     0.40600
C1342       C  0.72846017  0.26075895  0.10001585    -0.26500
O1343       O  0.79134904  0.23387267  0.12633924    -0.58400
H1344       H  0.80660776  0.21041175  0.10170791     0.16200
O1345       O  0.71971599  0.24997089  0.07458346    -0.59800
H1346       H  0.70785607  0.27643448  0.09960240     0.14700
H1347       H  0.63319434  0.21565571  0.15579769     0.46500
H1348       H  0.76850841  0.20369921  0.13021722     0.41900
H1349       H  0.73854516  0.28262081  0.07216278     0.45300
H1350       H  0.82937540  0.32331957  0.13519149     0.36800
C1351       C  0.80351738  0.29097175  0.04246765    -0.27400
C1352       C  0.84849622  0.32260462  0.04591779     0.02200
C1353       C  0.86684488  0.31562747  0.05859506     0.30300
C1354       C  0.84052635  0.27729067  0.06725807    -0.19200
C1355       C  0.79671321  0.24247730  0.06304521    -0.28600
C1356       C  0.77787492  0.25141622  0.05055683     0.44300
C1357       C  0.87499068  0.36238191  0.03612327     0.05500
O1358       O  0.91073783  0.34552599  0.06256057    -0.57100
H1359       H  0.85532574  0.27362094  0.07712274     0.18400
O1360       O  0.73305533  0.22499090  0.04687261    -0.63800
H1361       H  0.78742012  0.29718794  0.03341059     0.16900
C1362       C  0.87232021  0.35661953  0.02096356     0.29100
C1363       C  0.89502273  0.39410176  0.01184959    -0.24700
C1364       C  0.92288204  0.43804025  0.01739373    -0.24000
C1365       C  0.92704961  0.44381192  0.03252297     0.40600
C1366       C  0.90227860  0.40646109  0.04172330    -0.26500
O1367       O  0.84817985  0.31429861  0.01485702    -0.58400
H1368       H  0.89155847  0.38858794  0.00027218     0.16200
O1369       O  0.95596774  0.48543468  0.03846704    -0.59800
H1370       H  0.90466853  0.41210450  0.05328074     0.14700
H1371       H  0.73278505  0.21398304  0.03694198     0.46500
H1372       H  0.86916986  0.30230901  0.01483581     0.41900
H1373       H  0.98563526  0.48712856  0.03907444     0.45300
H1374       H  0.92936050  0.33610557  0.05700346     0.36800
C1375       C  0.92116599  0.82280838  0.10087167    -0.27400
C1376       C  0.88199063  0.81112153  0.09279773     0.02200
C1377       C  0.86573832  0.84163728  0.09253826     0.30300
C1378       C  0.88732862  0.88173993  0.10072905    -0.19200
C1379       C  0.92604516  0.89284708  0.10893687    -0.28600
C1380       C  0.94326730  0.86326914  0.10878156     0.44300
C1381       C  0.85642666  0.76533827  0.08591071     0.05500
O1382       O  0.82825422  0.83217049  0.08455264    -0.57100
H1383       H  0.87355552  0.90405777  0.10077323     0.18400
O1384       O  0.98019818  0.87224146  0.11700269    -0.63800
H1385       H  0.93362044  0.79949193  0.10162507     0.16900
C1386       C  0.87858073  0.74751166  0.07779439     0.29100
C1387       C  0.85507458  0.70196044  0.07333633    -0.24700
C1388       C  0.80846100  0.67289037  0.07644416    -0.24000
C1389       C  0.78613022  0.69222085  0.08402419     0.40600
C1390       C  0.81005508  0.73737261  0.08874766    -0.26500
O1391       O  0.92344481  0.77450967  0.07414553    -0.58400
H1392       H  0.87490535  0.68953863  0.06819432     0.16200
O1393       O  0.74117581  0.66620357  0.08769025    -0.59800
H1394       H  0.79239543  0.74993892  0.09522320     0.14700
H1395       H  0.96790455  0.86040615  0.12676977     0.46500
H1396       H  0.93985978  0.76255981  0.07970780     0.41900
H1397       H  0.72514556  0.67760219  0.08167915     0.45300
H1398       H  0.84025239  0.84638836  0.07499741     0.36800
C1399       C  0.79935978  0.58963197  0.11228056    -0.27400
C1400       C  0.75496339  0.55964758  0.11678707     0.02200
C1401       C  0.71875720  0.55298726  0.10794899     0.30300
C1402       C  0.72734258  0.57417524  0.09445382    -0.19200
C1403       C  0.77199637  0.60026920  0.08901033    -0.28600
C1404       C  0.80817735  0.60976461  0.09863139     0.44300
C1405       C  0.74699667  0.53403088  0.13040837     0.05500
O1406       O  0.67470985  0.52493858  0.11223628    -0.57100
H1407       H  0.69846965  0.56942204  0.08833724     0.18400
O1408       O  0.85251452  0.63804141  0.09463265    -0.63800
H1409       H  0.82757007  0.59656804  0.11923966     0.16900
C1410       C  0.76698556  0.50738300  0.13264527     0.29100
C1411       C  0.75731715  0.48137446  0.14519496    -0.24700
C1412       C  0.72786329  0.48145715  0.15575699    -0.24000
C1413       C  0.70875357  0.50918302  0.15363603     0.40600
C1414       C  0.71837647  0.53505370  0.14104381    -0.26500
O1415       O  0.79389035  0.50444485  0.12221261    -0.58400
H1416       H  0.77213382  0.46018329  0.14644843     0.16200
O1417       O  0.67948462  0.51030337  0.16352765    -0.59800
H1418       H  0.70311264  0.55575057  0.13952268     0.14700
H1419       H  0.86575763  0.61834932  0.09340947     0.46500
H1420       H  0.82533030  0.52309681  0.12584673     0.41900
H1421       H  0.69900429  0.53491199  0.17036344     0.45300
H1422       H  0.66712288  0.49407484  0.10917736     0.36800
C1423       C  0.59934841  0.58943811  0.03724087    -0.27400
C1424       C  0.62253209  0.56543583  0.03625236     0.02200
C1425       C  0.60703720  0.52938029  0.02622132     0.30300
C1426       C  0.56946901  0.51824489  0.01743676    -0.19200
C1427       C  0.54746567  0.54329391  0.01817540    -0.28600
C1428       C  0.56259814  0.57903884  0.02817946     0.44300
C1429       C  0.66340227  0.57928184  0.04541917     0.05500
O1430       O  0.62923098  0.50578637  0.02452731    -0.57100
H1431       H  0.55842207  0.49095994  0.00965102     0.18400
O1432       O  0.54221209  0.60460503  0.02893701    -0.63800
H1433       H  0.61003812  0.61675474  0.04498851     0.16900
C1434       C  0.69766491  0.62514980  0.04666578     0.29100
C1435       C  0.73484802  0.63790072  0.05574704    -0.24700
C1436       C  0.73981748  0.60567815  0.06386080    -0.24000
C1437       C  0.70730394  0.55916530  0.06132602     0.40600
C1438       C  0.66890627  0.54667307  0.05278407    -0.26500
O1439       O  0.69584408  0.65802206  0.03875642    -0.58400
H1440       H  0.76048320  0.67348772  0.05595424     0.16200
O1441       O  0.71189478  0.52536751  0.06750040    -0.59800
H1442       H  0.64338983  0.51106508  0.05189057     0.14700
H1443       H  0.52275760  0.59378229  0.03767313     0.46500
H1444       H  0.70839207  0.65746260  0.02914978     0.41900
H1445       H  0.72004259  0.51168494  0.05944405     0.45300
H1446       H  0.65493406  0.52456683  0.01794127     0.36800
C1447       C  0.83812577  0.55168028  0.05922645    -0.27400
C1448       C  0.85817609  0.57481364  0.04644589     0.02200
C1449       C  0.85353136  0.61167702  0.04244370     0.30300
C1450       C  0.82886563  0.62485245  0.05119324    -0.19200
C1451       C  0.81080576  0.60410044  0.06469930    -0.28600
C1452       C  0.81465140  0.56553451  0.06834495     0.44300
C1453       C  0.88220017  0.55893647  0.03700908     0.05500
O1454       O  0.87144913  0.63390642  0.02965997    -0.57100
H1455       H  0.82434872  0.65225577  0.04746765     0.18400
O1456       O  0.79199387  0.53804267  0.07988035    -0.63800
H1457       H  0.84012725  0.52206742  0.06208786     0.16900
C1458       C  0.92943390  0.58508503  0.03521191     0.29100
C1459       C  0.95132002  0.57059323  0.02571837    -0.24700
C1460       C  0.92673570  0.52995652  0.01787926    -0.24000
C1461       C  0.87939499  0.50340147  0.01985024     0.40600
C1462       C  0.85755535  0.51787569  0.02946716    -0.26500
O1463       O  0.95438797  0.62525474  0.04250762    -0.58400
H1464       H  0.98770406  0.59142635  0.02434008     0.16200
O1465       O  0.85396984  0.46507120  0.01171791    -0.59800
H1466       H  0.82107414  0.49769203  0.03071273     0.14700
H1467       H  0.81550289  0.53801895  0.08612971     0.46500
H1468       H  0.96013333  0.61666074  0.05215948     0.41900
H1469       H  0.83991816  0.43958125  0.01872894     0.45300
H1470       H  0.90033460  0.66151772  0.03232846     0.36800
C1471       C  0.26102914  0.16960022  0.07600255    -0.27400
C1472       C  0.25022715  0.15729035  0.09049194     0.02200
C1473       C  0.28526917  0.16659737  0.10021442     0.30300
C1474       C  0.33043804  0.18921703  0.09553791    -0.19200
C1475       C  0.34266176  0.20590623  0.08122796    -0.28600
C1476       C  0.30635867  0.19248370  0.07126665     0.44300
C1477       C  0.20232972  0.13309721  0.09544594     0.05500
O1478       O  0.27566921  0.15356648  0.11440038    -0.57100
H1479       H  0.35554361  0.19325055  0.10336452     0.18400
O1480       O  0.31481341  0.20392596  0.05696661    -0.63800
H1481       H  0.23417014  0.16138313  0.06829251     0.16900
C1482       C  0.17926366  0.15653119  0.09827961     0.29100
C1483       C  0.13615953  0.13392036  0.10479534    -0.24700
C1484       C  0.11555776  0.08783729  0.10866083    -0.24000
C1485       C  0.13771448  0.06389898  0.10484656     0.40600
C1486       C  0.18078365  0.08664186  0.09846869    -0.26500
O1487       O  0.19936701  0.20193650  0.09525947    -0.58400
H1488       H  0.12001598  0.15314842  0.10752661     0.16200
O1489       O  0.11852382  0.01855603  0.10782594    -0.59800
H1490       H  0.19804742  0.06815933  0.09622166     0.14700
H1491       H  0.30667452  0.17523755  0.05188242     0.46500
H1492       H  0.21537809  0.21763366  0.10425749     0.41900
H1493       H  0.09647397  0.00275337  0.09992144     0.45300
H1494       H  0.27575245  0.17931196  0.11936756     0.36800
C1495       C  0.49197443  0.26112785  0.10361142    -0.27400
C1496       C  0.48142348  0.28095251  0.11507247     0.02200
C1497       C  0.44535024  0.28887613  0.11343801     0.30300
C1498       C  0.41933480  0.27524391  0.10082270    -0.19200
C1499       C  0.42656634  0.25123713  0.08964684    -0.28600
C1500       C  0.46614468  0.24765217  0.09084540     0.44300
C1501       C  0.50860623  0.29406337  0.12860057     0.05500
O1502       O  0.43455752  0.30918826  0.12425856    -0.57100
H1503       H  0.39171331  0.28183825  0.10001290     0.18400
O1504       O  0.48180176  0.23355147  0.07951892    -0.63800
H1505       H  0.52132608  0.25718349  0.10439181     0.16900
C1506       C  0.51213095  0.26163263  0.13692101     0.29100
C1507       C  0.53668737  0.27438803  0.14989589    -0.24700
C1508       C  0.55874508  0.31965030  0.15476038    -0.24000
C1509       C  0.55545046  0.35219198  0.14627269     0.40600
C1510       C  0.53036686  0.33918275  0.13341658    -0.26500
O1511       O  0.49029922  0.21701454  0.13271010    -0.58400
H1512       H  0.53881793  0.24869972  0.15607294     0.16200
O1513       O  0.57614192  0.39679027  0.15045628    -0.59800
H1514       H  0.52818870  0.36461121  0.12709743     0.14700
H1515       H  0.50924801  0.26110035  0.07593475     0.46500
H1516       H  0.51396727  0.21271634  0.12810404     0.41900
H1517       H  0.60598662  0.41193642  0.14549041     0.45300
H1518       H  0.41366088  0.28406301  0.13072642     0.36800
C1519       C  0.38746552  0.33700000  0.05957123    -0.27400
C1520       C  0.42851957  0.35827884  0.05198140     0.02200
C1521       C  0.46064871  0.34546452  0.05465063     0.30300
C1522       C  0.44950026  0.30839656  0.06354446    -0.19200
C1523       C  0.40535753  0.28156930  0.06934779    -0.28600
C1524       C  0.37623277  0.29983393  0.06859025     0.44300
C1525       C  0.43703228  0.39223378  0.04075807     0.05500
O1526       O  0.50272425  0.36844887  0.04832428    -0.57100
H1527       H  0.47427032  0.29803009  0.06477630     0.18400
O1528       O  0.33741231  0.28281962  0.07666606    -0.63800
H1529       H  0.36358883  0.34860846  0.05826201     0.16900
C1530       C  0.44218140  0.38342660  0.02621321     0.29100
C1531       C  0.45260290  0.41653088  0.01570809    -0.24700
C1532       C  0.45752682  0.45839086  0.01950257    -0.24000
C1533       C  0.45058056  0.46657209  0.03392652     0.40600
C1534       C  0.44056410  0.43358098  0.04449347    -0.26500
O1535       O  0.43712358  0.34252701  0.02218614    -0.58400
H1536       H  0.45704500  0.40966140  0.00457817     0.16200
O1537       O  0.45338570  0.50660624  0.03775871    -0.59800
H1538       H  0.43600740  0.44038685  0.05561630     0.14700
H1539       H  0.34577017  0.30289768  0.08523348     0.46500
H1540       H  0.40406774  0.32204952  0.02080046     0.41900
H1541       H  0.42264251  0.50164847  0.03612241     0.45300
H1542       H  0.50235613  0.34802930  0.04063304     0.36800
C1543       C  0.68642883  0.11788514  0.04489586    -0.27400
C1544       C  0.64563533  0.11473728  0.04906667     0.02200
C1545       C  0.64261078  0.12978554  0.06294715     0.30300
C1546       C  0.68136743  0.15205917  0.07169062    -0.19200
C1547       C  0.72464219  0.16375745  0.06625258    -0.28600
C1548       C  0.72557776  0.14200762  0.05325907     0.44300
C1549       C  0.60835161  0.09931455  0.03832983     0.05500
O1550       O  0.60272526  0.12549649  0.06774376    -0.57100
H1551       H  0.67725258  0.16247761  0.08231504     0.18400
O1552       O  0.76560611  0.14881468  0.04767753    -0.63800
H1553       H  0.68884170  0.10436241  0.03455650     0.16900
C1554       C  0.61720176  0.11949962  0.02451067     0.29100
C1555       C  0.58297696  0.10328064  0.01409476    -0.24700
C1556       C  0.53931316  0.06752372  0.01724903    -0.24000
C1557       C  0.52974828  0.04829795  0.03117276     0.40600
C1558       C  0.56418546  0.06419513  0.04161870    -0.26500
O1559       O  0.65898999  0.15599274  0.02122253    -0.58400
H1560       H  0.59059875  0.11852194  0.00344088     0.16200
O1561       O  0.48723610  0.01322650  0.03453655    -0.59800
H1562       H  0.55669109  0.04826348  0.05215700     0.14700
H1563       H  0.76552140  0.12034639  0.04964135     0.46500
H1564       H  0.67322971  0.14415232  0.01454751     0.41900
H1565       H  0.48703339  0.98539767  0.03148628     0.45300
H1566       H  0.60348951  0.15344870  0.06445492     0.36800
C1567       C  0.41807166  0.18549956  0.04150545    -0.27400
C1568       C  0.42026599  0.14890332  0.04718389     0.02200
C1569       C  0.40934788  0.13786778  0.06185458     0.30300
C1570       C  0.39884219  0.16484823  0.07068690    -0.19200
C1571       C  0.40071620  0.20455668  0.06540868    -0.28600
C1572       C  0.40690881  0.21207359  0.05014405     0.44300
C1573       C  0.43348078  0.12279052  0.03739236     0.05500
O1574       O  0.41174954  0.10259640  0.06788424    -0.57100
H1575       H  0.39180147  0.15622123  0.08202282     0.18400
O1576       O  0.40102679  0.24420836  0.04326781    -0.63800
H1577       H  0.42411007  0.19307658  0.03007150     0.16900
C1578       C  0.40439486  0.07601533  0.03486567     0.29100
C1579       C  0.41607786  0.05332487  0.02462163    -0.24700
C1580       C  0.45646108  0.07659119  0.01659059    -0.24000
C1581       C  0.48533824  0.12343520  0.01902656     0.40600
C1582       C  0.47396210  0.14598512  0.02939763    -0.26500
O1583       O  0.36366003  0.05245649  0.04193707    -0.58400
H1584       H  0.39309617  0.01746174  0.02274883     0.16200
O1585       O  0.52402206  0.14784680  0.01099100    -0.59800
H1586       H  0.49641304  0.18210261  0.03097638     0.14700
H1587       H  0.37529028  0.22752132  0.03651541     0.46500
H1588       H  0.34235719  0.05787224  0.03625840     0.41900
H1589       H  0.51511481  0.16028303  0.00280440     0.45300
H1590       H  0.37998431  0.07924434  0.07025849     0.36800
C1591       C  0.59826802  0.78393405  0.75530601    -0.27400
C1592       C  0.56779773  0.79799602  0.75151783     0.02200
C1593       C  0.58196335  0.83375895  0.74155404     0.30300
C1594       C  0.62684045  0.85704754  0.73645476    -0.19200
C1595       C  0.65928226  0.84634761  0.74146307    -0.28600
C1596       C  0.64295143  0.80679716  0.75018523     0.44300
C1597       C  0.52298906  0.77760546  0.75897635     0.05500
O1598       O  0.55238255  0.84691331  0.73694234    -0.57100
H1599       H  0.63574548  0.88378062  0.72869339     0.18400
O1600       O  0.67177588  0.79299511  0.75506445    -0.63800
H1601       H  0.58827056  0.75653508  0.76295266     0.16900
C1602       C  0.49411060  0.73023947  0.76010939     0.29100
C1603       C  0.45462700  0.71216790  0.76857766    -0.24700
C1604       C  0.44327076  0.74059981  0.77622328    -0.24000
C1605       C  0.47147277  0.78808670  0.77461947     0.40600
C1606       C  0.51080781  0.80602625  0.76614184    -0.26500
O1607       O  0.50394027  0.70135408  0.75281760    -0.58400
H1608       H  0.43348492  0.67563789  0.76942979     0.16200
O1609       O  0.46221251  0.81757197  0.78176371    -0.59800
H1610       H  0.53283952  0.84251894  0.76560344     0.14700
H1611       H  0.66395894  0.76532909  0.74941622     0.46500
H1612       H  0.51265418  0.68666426  0.76035885     0.41900
H1613       H  0.44222380  0.82229411  0.77515972     0.45300
H1614       H  0.53786775  0.82844152  0.72818605     0.36800
C1615       C  0.26625934  0.50078402  0.75921052    -0.27400
C1616       C  0.22011251  0.47754777  0.75563292     0.02200
C1617       C  0.19337230  0.49608412  0.75978354     0.30300
C1618       C  0.21202988  0.53537006  0.76837910    -0.19200
C1619       C  0.25740708  0.55662653  0.77301563    -0.28600
C1620       C  0.28502909  0.54005503  0.76776798     0.44300
C1621       C  0.19845234  0.42973310  0.75072783     0.05500
O1622       O  0.14798693  0.47372193  0.75662239    -0.57100
H1623       H  0.19010954  0.54744546  0.77217523     0.18400
O1624       O  0.33023010  0.56139065  0.77119011    -0.63800
H1625       H  0.28721768  0.48686748  0.75608006     0.16900
C1626       C  0.18486821  0.41603162  0.73640826     0.29100
C1627       C  0.16229892  0.36957885  0.73278892    -0.24700
C1628       C  0.14943987  0.33562522  0.74350770    -0.24000
C1629       C  0.16827089  0.35085713  0.75760362     0.40600
C1630       C  0.19170232  0.39711100  0.76097107    -0.26500
O1631       O  0.19232263  0.44751301  0.72599260    -0.58400
H1632       H  0.15183156  0.35975497  0.72169240     0.16200
O1633       O  0.16807426  0.32178990  0.76784914    -0.59800
H1634       H  0.20471661  0.40766026  0.77183147     0.14700
H1635       H  0.33250169  0.54313007  0.77908522     0.46500
H1636       H  0.22083102  0.45402403  0.72115372     0.41900
H1637       H  0.15355246  0.32573697  0.77658645     0.45300
H1638       H  0.14572036  0.48718350  0.74739895     0.36800
C1639       C  0.25054856  0.80825945  0.76985015    -0.27400
C1640       C  0.21132178  0.78023641  0.76181370     0.02200
C1641       C  0.19518579  0.73338065  0.76106920     0.30300
C1642       C  0.21729586  0.71493426  0.76873006    -0.19200
C1643       C  0.25569367  0.74273461  0.77714620    -0.28600
C1644       C  0.27255070  0.78983659  0.77756028     0.44300
C1645       C  0.18568015  0.79989654  0.75525395     0.05500
O1646       O  0.15807791  0.70556012  0.75276850    -0.57100
H1647       H  0.20393466  0.67867373  0.76829759     0.18400
O1648       O  0.30893053  0.81782024  0.78610331    -0.63800
H1649       H  0.26298225  0.84429201  0.77065253     0.16900
C1650       C  0.14199001  0.78694529  0.76015984     0.29100
C1651       C  0.11952705  0.80816617  0.75470196    -0.24700
C1652       C  0.14064829  0.84490804  0.74488701    -0.24000
C1653       C  0.18316491  0.85480092  0.73897861     0.40600
C1654       C  0.20542055  0.83290313  0.74443789    -0.26500
O1655       O  0.12151013  0.75469790  0.77073345    -0.58400
H1656       H  0.08614677  0.79784200  0.75893434     0.16200
O1657       O  0.20142247  0.88237826  0.72712651    -0.59800
H1658       H  0.23823279  0.84149339  0.74009933     0.14700
H1659       H  0.29608639  0.81580265  0.79586892     0.46500
H1660       H  0.13170891  0.77156811  0.77997846     0.41900
H1661       H  0.23316399  0.90511491  0.72964909     0.45300
H1662       H  0.13331171  0.68731984  0.75971816     0.36800
C1663       C  0.15381498  0.29720891  0.90202253    -0.27400
C1664       C  0.10636572  0.27014869  0.90207151     0.02200
C1665       C  0.08130859  0.28747078  0.90870378     0.30300
C1666       C  0.10350251  0.33135053  0.91461453    -0.19200
C1667       C  0.15132182  0.35986099  0.91403877    -0.28600
C1668       C  0.17609579  0.34160559  0.90746712     0.44300
C1669       C  0.08381931  0.22611819  0.89396057     0.05500
O1670       O  0.03482328  0.26290665  0.90876129    -0.57100
H1671       H  0.08224213  0.34366911  0.91874505     0.18400
O1672       O  0.22212789  0.36791073  0.90553166    -0.63800
H1673       H  0.17400415  0.28452174  0.89717034     0.16900
C1674       C  0.09862475  0.22367077  0.87990626     0.29100
C1675       C  0.07849151  0.18249385  0.87243222    -0.24700
C1676       C  0.04190432  0.14318976  0.87833546    -0.24000
C1677       C  0.02579145  0.14546059  0.89214185     0.40600
C1678       C  0.04712644  0.18652004  0.89994240    -0.26500
O1679       O  0.13212769  0.26166898  0.87314732    -0.58400
H1680       H  0.09066221  0.18164890  0.86168113     0.16200
O1681       O  0.98967041  0.10780512  0.89816367    -0.59800
H1682       H  0.03511220  0.18728860  0.91070977     0.14700
H1683       H  0.23563903  0.35303631  0.91115124     0.46500
H1684       H  0.11660897  0.27678131  0.86894283     0.41900
H1685       H  0.00258070  0.09020894  0.90236266     0.45300
H1686       H  0.02555820  0.27207816  0.89987229     0.36800
C1687       C  0.26524482  0.55538981  0.86326403    -0.27400
C1688       C  0.22913274  0.51024173  0.86278283     0.02200
C1689       C  0.20732998  0.49228146  0.84941725     0.30300
C1690       C  0.22232687  0.51906565  0.83689623    -0.19200
C1691       C  0.25987942  0.56326903  0.83738616    -0.28600
C1692       C  0.28099204  0.58154697  0.85072807     0.44300
C1693       C  0.21533539  0.48268135  0.87629336     0.05500
O1694       O  0.17198940  0.44841878  0.84837699    -0.57100
H1695       H  0.20539578  0.50487058  0.82671527     0.18400
O1696       O  0.31672613  0.62529623  0.85167976    -0.63800
H1697       H  0.28140363  0.57062598  0.87344356     0.16900
C1698       C  0.24806401  0.48280441  0.88548410     0.29100
C1699       C  0.23514360  0.45952357  0.89863448    -0.24700
C1700       C  0.18947642  0.43595949  0.90328250    -0.24000
C1701       C  0.15635990  0.43237994  0.89326519     0.40600
C1702       C  0.16951184  0.45652574  0.88019835    -0.26500
O1703       O  0.29278166  0.50398858  0.88139110    -0.58400
H1704       H  0.26158938  0.45970906  0.90502077     0.16200
O1705       O  0.11092209  0.40539259  0.89619960    -0.59800
H1706       H  0.14356724  0.45525405  0.87321933     0.14700
H1707       H  0.30280062  0.64454662  0.85214797     0.46500
H1708       H  0.30908876  0.52989773  0.88813255     0.41900
H1709       H  0.09843655  0.42590429  0.89654061     0.45300
H1710       H  0.18633565  0.42974938  0.84719027     0.36800
C1711       C  0.28334542  0.48827332  0.94096428    -0.27400
C1712       C  0.29227815  0.45707736  0.94765596     0.02200
C1713       C  0.26236342  0.41046669  0.94527262     0.30300
C1714       C  0.22532130  0.39588698  0.93589310    -0.19200
C1715       C  0.21711881  0.42704018  0.92845602    -0.28600
C1716       C  0.24598839  0.47388412  0.93180088     0.44300
C1717       C  0.33221048  0.47372184  0.95739901     0.05500
O1718       O  0.26752083  0.37881341  0.95275366    -0.57100
H1719       H  0.20236962  0.35976116  0.93488227     0.18400
O1720       O  0.23894269  0.50630316  0.92572983    -0.63800
H1721       H  0.30556180  0.52427922  0.94284618     0.16900
C1722       C  0.36429013  0.45997033  0.95546615     0.29100
C1723       C  0.40056657  0.47460894  0.96509246    -0.24700
C1724       C  0.40674660  0.50459708  0.97637458    -0.24000
C1725       C  0.37568308  0.51956221  0.97810699     0.40600
C1726       C  0.33878053  0.50422350  0.96864230    -0.26500
O1727       O  0.36077212  0.43256169  0.94412098    -0.58400
H1728       H  0.42426603  0.46279051  0.96370276     0.16200
O1729       O  0.38067912  0.54848367  0.98915812    -0.59800
H1730       H  0.31471011  0.51546437  0.97025728     0.14700
H1731       H  0.22891950  0.51831722  0.93378550     0.46500
H1732       H  0.37645542  0.45352520  0.93594720     0.41900
H1733       H  0.36523586  0.52858461  0.99758049     0.45300
H1734       H  0.27483403  0.36242042  0.94535811     0.36800
C1735       C  0.07936794  0.46745719  0.96955289    -0.27400
C1736       C  0.06811937  0.46257292  0.95482535     0.02200
C1737       C  0.03305566  0.46963805  0.95010449     0.30300
C1738       C  0.01014890  0.48172293  0.96010276    -0.19200
C1739       C  0.02183443  0.48681753  0.97477821    -0.28600
C1740       C  0.05632419  0.47900415  0.97949542     0.44300
C1741       C  0.09263712  0.44861286  0.94479589     0.05500
O1742       O  0.01937917  0.46236205  0.93593761    -0.57100
H1743       H  0.98305700  0.48681062  0.95643661     0.18400
O1744       O  0.06832299  0.48351685  0.99380877    -0.63800
H1745       H  0.10635760  0.46242342  0.97337562     0.16900
C1746       C  0.11405572  0.47343516  0.93225260     0.29100
C1747       C  0.13908905  0.46067847  0.92352161    -0.24700
C1748       C  0.14410362  0.42319984  0.92703894    -0.24000
C1749       C  0.12403061  0.39999243  0.94013917     0.40600
C1750       C  0.09780162  0.41192336  0.94854897    -0.26500
O1751       O  0.11261199  0.51157710  0.92873857    -0.58400
H1752       H  0.15654288  0.48226038  0.91440739     0.16200
O1753       O  0.12935231  0.36493085  0.94475723    -0.59800
H1754       H  0.08214446  0.39282201  0.95830913     0.14700
H1755       H  0.09214661  0.51573780  0.99502851     0.46500
H1756       H  0.13733692  0.53646056  0.93436651     0.41900
H1757       H  0.14903229  0.37656712  0.95342173     0.45300
H1758       H  0.02653820  0.49241483  0.93215109     0.36800
C1759       C  0.69612074  0.91271957  0.90093027    -0.27400
C1760       C  0.72509367  0.89731746  0.90542742     0.02200
C1761       C  0.71005662  0.86487169  0.91660026     0.30300
C1762       C  0.66536126  0.84515655  0.92189898    -0.19200
C1763       C  0.63389590  0.85546709  0.91576100    -0.28600
C1764       C  0.65167012  0.89317252  0.90621946     0.44300
C1765       C  0.77020832  0.91524362  0.89811246     0.05500
O1766       O  0.73924314  0.85326995  0.92270207    -0.57100
H1767       H  0.65553569  0.82103949  0.93062532     0.18400
O1768       O  0.62419988  0.90774400  0.90066653    -0.63800
H1769       H  0.70717324  0.93868062  0.89269341     0.16900
C1770       C  0.78408559  0.88605688  0.89224709     0.29100
C1771       C  0.82414459  0.90381598  0.88397329    -0.24700
C1772       C  0.85062162  0.95051440  0.88106035    -0.24000
C1773       C  0.83706419  0.97966589  0.88714101     0.40600
C1774       C  0.79775362  0.96209361  0.89566144    -0.26500
O1775       O  0.75670149  0.83987726  0.89341617    -0.58400
H1776       H  0.83313230  0.88057474  0.87916994     0.16200
O1777       O  0.86194452  0.02558605  0.88480986    -0.59800
H1778       H  0.78804434  0.98527325  0.90006005     0.14700
H1779       H  0.63136905  0.93518043  0.90633620     0.46500
H1780       H  0.77424527  0.82961314  0.89915389     0.41900
H1781       H  0.84605229  0.03142628  0.87691438     0.45300
H1782       H  0.72539981  0.82017463  0.92107913     0.36800
C1783       C  0.54766858  0.78934853  0.87834270    -0.27400
C1784       C  0.50097751  0.77143252  0.87894562     0.02200
C1785       C  0.48013402  0.76656829  0.89239784     0.30300
C1786       C  0.50660280  0.78265031  0.90492903    -0.19200
C1787       C  0.55460212  0.80601031  0.90438229    -0.28600
C1788       C  0.57432863  0.80495108  0.89082679     0.44300
C1789       C  0.47459160  0.75813392  0.86538663     0.05500
O1790       O  0.43382945  0.74548021  0.89341198    -0.57100
H1791       H  0.48945705  0.77862267  0.91513712     0.18400
O1792       O  0.61899408  0.81718394  0.88948417    -0.63800
H1793       H  0.56370012  0.79095767  0.86807445     0.16900
C1794       C  0.45723879  0.78438822  0.85985523     0.29100
C1795       C  0.43312741  0.77206423  0.84684080    -0.24700
C1796       C  0.42587974  0.73351363  0.83909600    -0.24000
C1797       C  0.44436816  0.70783525  0.84455699     0.40600
C1798       C  0.46846190  0.72027724  0.85760690    -0.26500
O1799       O  0.46507449  0.82305306  0.86687223    -0.58400
H1800       H  0.41993123  0.79279209  0.84284619     0.16200
O1801       O  0.43796279  0.66973190  0.83752529    -0.59800
H1802       H  0.48217993  0.70013791  0.86173114     0.14700
H1803       H  0.61903694  0.78876111  0.88746312     0.46500
H1804       H  0.43636101  0.81469745  0.87189741     0.41900
H1805       H  0.46535681  0.68017027  0.83143673     0.45300
H1806       H  0.42722891  0.77023743  0.89484602     0.36800
C1807       C  0.56097050  0.71193289  0.93435293    -0.27400
C1808       C  0.53377849  0.70579335  0.94646146     0.02200
C1809       C  0.52035888  0.73760251  0.94914219     0.30300
C1810       C  0.53646702  0.77611233  0.94051503    -0.19200
C1811       C  0.56654257  0.78484233  0.92877404    -0.28600
C1812       C  0.57627964  0.75011198  0.92536057     0.44300
C1813       C  0.52020985  0.66707362  0.95652624     0.05500
O1814       O  0.49050751  0.73097964  0.96008025    -0.57100
H1815       H  0.52308799  0.79790311  0.94292783     0.18400
O1816       O  0.59945978  0.75241001  0.91297921    -0.63800
H1817       H  0.57077070  0.68718862  0.93185632     0.16900
C1818       C  0.50171244  0.62209270  0.95157247     0.29100
C1819       C  0.49031169  0.58687200  0.96146071    -0.24700
C1820       C  0.49510236  0.59535152  0.97641064    -0.24000
C1821       C  0.51241604  0.64020328  0.98132824     0.40600
C1822       C  0.52568917  0.67551129  0.97145318    -0.26500
O1823       O  0.49441536  0.61210157  0.93712438    -0.58400
H1824       H  0.47832786  0.55303744  0.95737418     0.16200
O1825       O  0.51696847  0.65006647  0.99581903    -0.59800
H1826       H  0.54037264  0.70983166  0.97552586     0.14700
H1827       H  0.62658446  0.75125501  0.91608414     0.46500
H1828       H  0.46283770  0.60470488  0.93537887     0.41900
H1829       H  0.48707281  0.64521303  0.99892587     0.45300
H1830       H  0.45992088  0.71143633  0.95584125     0.36800
C1831       C  0.57442179  0.90533613  0.94780307    -0.27400
C1832       C  0.53932118  0.91125138  0.94272179     0.02200
C1833       C  0.52187492  0.89524104  0.92884776     0.30300
C1834       C  0.53820789  0.87207002  0.92053791    -0.19200
C1835       C  0.56996786  0.86121334  0.92620300    -0.28600
C1836       C  0.58989202  0.88106409  0.93975251     0.44300
C1837       C  0.52229273  0.93519675  0.95196164     0.05500
O1838       O  0.48939857  0.90287673  0.92318613    -0.57100
H1839       H  0.52503830  0.86238467  0.90972729     0.18400
O1840       O  0.62224630  0.87390431  0.94577789    -0.63800
H1841       H  0.58907600  0.91847621  0.95833114     0.16900
C1842       C  0.47935684  0.91180553  0.95867430     0.29100
C1843       C  0.46614546  0.93445106  0.96851062    -0.24700
C1844       C  0.49484873  0.98085889  0.97152734    -0.24000
C1845       C  0.53724773  0.00436860  0.96441746     0.40600
C1846       C  0.55064180  0.98154380  0.95482890    -0.26500
O1847       O  0.45109080  0.86629829  0.95624444    -0.58400
H1848       H  0.43376361  0.91555762  0.97396536     0.16200
O1849       O  0.56547671  0.05007897  0.96657312    -0.59800
H1850       H  0.58359164  0.00009377  0.94968432     0.14700
H1851       H  0.65142716  0.90239394  0.94409299     0.46500
H1852       H  0.42696419  0.86413380  0.94982758     0.41900
H1853       H  0.59089472  0.05297384  0.97249262     0.45300
H1854       H  0.46046125  0.87355182  0.92412948     0.36800
C1855       C  0.10291337  0.87180047  0.91501733    -0.27400
C1856       C  0.10921793  0.88752791  0.90074619     0.02200
C1857       C  0.13794030  0.88065823  0.89166992     0.30300
C1858       C  0.15811059  0.85654292  0.89661037    -0.19200
C1859       C  0.14907122  0.83668289  0.91056998    -0.28600
C1860       C  0.12340236  0.84763255  0.92007588     0.44300
C1861       C  0.08527451  0.91029900  0.89511318     0.05500
O1862       O  0.14663231  0.89752513  0.87785786    -0.57100
H1863       H  0.18132466  0.85400886  0.88928940     0.18400
O1864       O  0.11915701  0.83578136  0.93439868    -0.63800
H1865       H  0.08219834  0.87849150  0.92229728     0.16900
C1866       C  0.03905402  0.88480335  0.89150615     0.29100
C1867       C  0.01817752  0.90539022  0.88431557    -0.24700
C1868       C  0.04267299  0.95175583  0.88064202    -0.24000
C1869       C  0.08877667  0.97760836  0.88479710     0.40600
C1870       C  0.10959749  0.95679891  0.89192925    -0.26500
O1871       O  0.01476001  0.83901172  0.89407786    -0.58400
H1872       H  0.98298802  0.88450638  0.88116726     0.16200
O1873       O  0.11450112  0.02278613  0.88141084    -0.59800
H1874       H  0.14532694  0.97673512  0.89455451     0.14700
H1875       H  0.08620430  0.81840460  0.93653581     0.46500
H1876       H  0.00282486  0.83592860  0.90404673     0.41900
H1877       H  0.12821196  0.02375100  0.87188592     0.45300
H1878       H  0.12368345  0.87258199  0.87174428     0.36800
C1879       C  0.17410728  0.75284458  0.87963228    -0.27400
C1880       C  0.21922466  0.76430121  0.87842291     0.02200
C1881       C  0.24977486  0.78953189  0.88948656     0.30300
C1882       C  0.23509601  0.80390590  0.90147131    -0.19200
C1883       C  0.18993478  0.79472718  0.90251971    -0.28600
C1884       C  0.15930884  0.76756439  0.89138616     0.44300
C1885       C  0.23368634  0.75029362  0.86530756     0.05500
O1886       O  0.29401536  0.79993418  0.88874871    -0.57100
H1887       H  0.25931547  0.82127332  0.91000695     0.18400
O1888       O  0.11445017  0.75509228  0.89187014    -0.63800
H1889       H  0.15015718  0.73291116  0.87122517     0.16900
C1890       C  0.21798060  0.70426048  0.86249042     0.29100
C1891       C  0.22911973  0.69136083  0.84945768    -0.24700
C1892       C  0.25589532  0.72394870  0.83900491    -0.24000
C1893       C  0.27120521  0.77015313  0.84187379     0.40600
C1894       C  0.26032500  0.78291121  0.85496863    -0.26500
O1895       O  0.19154396  0.67162508  0.87240264    -0.58400
H1896       H  0.21719385  0.65576871  0.84762666     0.16200
O1897       O  0.29669766  0.80326583  0.83197189    -0.59800
H1898       H  0.27188075  0.81836995  0.85693368     0.14700
H1899       H  0.10971925  0.77094185  0.88369970     0.46500
H1900       H  0.21322952  0.67022754  0.87915627     0.41900
H1901       H  0.27438658  0.80520901  0.82566261     0.45300
H1902       H  0.29461017  0.77469941  0.89377879     0.36800
C1903       C  0.06864396  0.69841876  0.93160998    -0.27400
C1904       C  0.09124200  0.68290238  0.94058985     0.02200
C1905       C  0.13913959  0.70586971  0.93945859     0.30300
C1906       C  0.16206171  0.74210706  0.92993761    -0.19200
C1907       C  0.14058464  0.76345169  0.92340227    -0.28600
C1908       C  0.09242222  0.73919746  0.92367068     0.44300
C1909       C  0.06538560  0.64442336  0.95124113     0.05500
O1910       O  0.16504944  0.69597872  0.94826537    -0.57100
H1911       H  0.19855307  0.75762427  0.92919848     0.18400
O1912       O  0.06808026  0.75253011  0.91537126    -0.63800
H1913       H  0.03212710  0.67938950  0.93074696     0.16900
C1914       C  0.02420005  0.63568413  0.95780450     0.29100
C1915       C  0.00240687  0.60089660  0.96807124    -0.24700
C1916       C  0.02289498  0.57720480  0.97347267    -0.24000
C1917       C  0.06572185  0.58878248  0.96779447     0.40600
C1918       C  0.08360249  0.61782124  0.95591383    -0.26500
O1919       O  0.00517511  0.66152375  0.95473966    -0.58400
H1920       H  0.96981427  0.59368402  0.97219807     0.16200
O1921       O  0.09218206  0.57443381  0.97420823    -0.59800
H1922       H  0.11316589  0.62033943  0.95084736     0.14700
H1923       H  0.04528426  0.75311465  0.92186407     0.46500
H1924       H  0.02045122  0.68808901  0.96128984     0.41900
H1925       H  0.10628046  0.59482110  0.98261734     0.45300
H1926       H  0.16971570  0.71395109  0.95719673     0.36800
C1927       C  0.25115510  0.86470260  0.94931456    -0.27400
C1928       C  0.28814419  0.90405363  0.94354711     0.02200
C1929       C  0.28516974  0.91446422  0.92894606     0.30300
C1930       C  0.24769620  0.88437128  0.92042369    -0.19200
C1931       C  0.21116087  0.84381885  0.92612703    -0.28600
C1932       C  0.21177017  0.83784893  0.94135019     0.44300
C1933       C  0.32819988  0.93346270  0.95313477     0.05500
O1934       O  0.31840355  0.95388638  0.92280036    -0.57100
H1935       H  0.24755116  0.89247265  0.90912775     0.18400
O1936       O  0.17401266  0.80696573  0.94887461    -0.63800
H1937       H  0.25167572  0.85458571  0.96033649     0.16900
C1938       C  0.32224222  0.93779141  0.96807828     0.29100
C1939       C  0.35956581  0.95932766  0.97726869    -0.24700
C1940       C  0.40419603  0.98192280  0.97194545    -0.24000
C1941       C  0.41050443  0.98193072  0.95684876     0.40600
C1942       C  0.37294554  0.95622496  0.94771525    -0.26500
O1943       O  0.28002587  0.92202640  0.97393389    -0.58400
H1944       H  0.35321235  0.95923757  0.98874529     0.16200
O1945       O  0.45259304  0.00903068  0.95085168    -0.59800
H1946       H  0.37929983  0.95428379  0.93636642     0.14700
H1947       H  0.16503851  0.82506797  0.95491850     0.46500
H1948       H  0.27332559  0.94669837  0.97238587     0.41900
H1949       H  0.45880728  0.98882002  0.94481898     0.45300
H1950       H  0.30806759  0.97593243  0.92407399     0.36800
loop_ 
_geom_bond_atom_site_label_1 
_geom_bond_atom_site_label_2 
_geom_bond_distance 
_geom_bond_site_symmetry_2 
_ccdc_geom_bond_type 
C1         C1859   1.564       .  S
C1         C1883   1.566       .  S
C1         C1907   1.564       .  S
C1         C1931   1.575       .  S
C2         C1763   1.565       .  S
C2         C1787   1.570       .  S
C2         C1811   1.569       .  S
C2         C1835   1.576       .  S
C3         C1667   1.565       .  S
C3         C1700   1.562       .  S
C3         C1715   1.566       .  S
C3         C1748   1.559       .  S
O4           C19   1.261       .  A
O4          Al12   1.896       .  S
C5           O15   1.257       .  A
C5            O6   1.261       .  A
C5         C1691   1.473       .  S
O6           Al8   1.923       .  S
O7            C9   1.262       .  A
O7           Al8   1.904       .  S
Al8          O16   1.907       .  S
Al8          O18   1.915       .  S
Al8          O17   1.789       .  S
C9           O22   1.263       .  A
C9         C1892   1.488       .  S
O10          C20   1.257       .  A
O10         Al12   1.887       .  S
O11          C24   1.263       .  A
O11         Al21   1.899       .  S
Al12         O25   1.923       .  S
Al12         O22   1.914       .  S
Al12         O17   1.784       .  S
O13          C20   1.262       .  A
O13         Al21   1.921       .  S
O14          C23   1.266       .  A
O14         Al21   1.923       .  S
O15         Al21   1.889       .  S
O16          C23   1.264       .  A
O17         Al21   1.782       .  S
O18          C19   1.263       .  A
C19        C1643   1.478       .  S
C20        C1796   1.487       .  S
C23        C1619   1.491       .  S
C24          O25   1.265       .  A
C24        C1604   1.493       .  S
C26        C1844   1.500   1_545  S
C26          C27   1.427       .  A
C26          C31   1.409       .  A
C27        C1940   1.504   1_545  S
C27          C28   1.419       .  A
C28          C29   1.405   1_556  A
C28          H33   1.084       .  S
C29        C1580   1.496       .  S
C29          C30   1.410       .  A
C30        C1556   1.481       .  S
C30          C31   1.404   1_554  A
C31          H32   1.085       .  S
C34        C1475   1.571       .  S
C34        C1499   1.571       .  S
C34        C1523   1.557       .  S
C34        C1571   1.572       .  S
C35        C1388   1.569       .  S
C35        C1403   1.557       .  S
C35        C1436   1.566       .  S
C35        C1451   1.566       .  S
C36        C1316   1.575       .  S
C36        C1340   1.574       .  S
C36        C1355   1.570       .  S
C36        C1547   1.563       .  S
O37          C52   1.262       .  A
O37         Al45   1.898       .  S
C38          O48   1.260       .  A
C38          O39   1.266       .  A
C38        C1508   1.491       .  S
O39         Al41   1.929       .  S
O40          C42   1.255       .  A
O40         Al41   1.880       .  S
Al41         O49   1.902       .  S
Al41         O51   1.919       .  S
Al41         O50   1.784       .  S
C42          O55   1.264       .  A
C42        C1331   1.489       .  S
O43          C53   1.259       .  A
O43         Al45   1.895       .  S
O44          C57   1.265       .  A
O44         Al54   1.900       .  S
Al45         O58   1.928       .  S
Al45         O55   1.927       .  S
Al45         O50   1.786       .  S
O46          C53   1.258       .  A
O46         Al54   1.906       .  S
O47          C56   1.262       .  A
O47         Al54   1.914       .  S
O48         Al54   1.890       .  S
O49          C56   1.261       .  A
O50         Al54   1.786       .  S
O51          C52   1.266       .  A
C52        C1244   1.491       .  S
C53        C1412   1.483       .  S
C56        C1283   1.491       .  S
C57          O58   1.267       .  A
C57        C1268   1.483       .  S
C59        C1739   1.479   1_655  S
C59          C60   1.422       .  A
C59          C64   1.401       .  A
C60        C1916   1.512   1_655  S
C60          C61   1.412       .  A
C61          C62   1.413   1_556  A
C61          H66   1.083       .  S
C62        C1460   1.489       .  S
C62          C63   1.419       .  A
C63        C1364   1.497       .  S
C63          C64   1.401   1_554  A
C64          H65   1.085       .  S
C67        C1724   1.481       .  S
C67          C68   1.418       .  A
C67          C72   1.402       .  A
C68        C1820   1.490       .  S
C68          C69   1.408       .  A
C69          C70   1.401   1_556  A
C69          H74   1.084       .  S
C70        C1427   1.485       .  S
C70          C71   1.409       .  A
C71        C1532   1.475       .  S
C71          C72   1.401   1_554  A
C72          H73   1.085       .  S
C75        C1148   1.569       .  S
C75        C1163   1.566       .  S
C75        C1187   1.577       .  S
C75        C1211   1.564       .  S
C76        C1043   1.568       .  S
C76        C1067   1.571       .  S
C76        C1100   1.574       .  S
C76        C1115   1.573       .  S
C77         C947   1.572   1_565  S
C77         C971   1.557       .  S
C77         C995   1.572       .  S
C77        C1028   1.569       .  S
O78          C93   1.263       .  A
O78         Al86   1.907       .  S
C79          O89   1.260       .  A
C79          O80   1.263       .  A
C79         C980   1.484       .  S
O80         Al82   1.917       .  S
O81          C83   1.258       .  A
O81         Al82   1.888       .  S
Al82         O90   1.910       .  S
Al82         O92   1.919       .  S
Al82         O91   1.779       .  S
C83          O96   1.264       .  A
C83        C1172   1.475       .  S
O84          C94   1.261       .  A
O84         Al86   1.907       .  S
O85          C98   1.265       .  A
O85         Al95   1.900       .  S
Al86         O99   1.930       .  S
Al86         O96   1.931       .  S
Al86         O91   1.785       .  S
O87          C94   1.262       .  A
O87         Al95   1.919       .  S
O88          C97   1.266       .  A
O88         Al95   1.929       .  S
O89         Al95   1.892       .  S
O90          C97   1.264       .  A
O91         Al95   1.783       .  S
O92          C93   1.266       .  A
C93         C923   1.491       .  S
C94        C1076   1.493       .  S
C97         C884   1.494       .  S
C98          O99   1.268       .  A
C98         C899   1.485       .  S
C100        C803   1.566       .  S
C100        C827   1.571       .  S
C100        C851   1.573       .  S
C100       C1292   1.562       .  S
C101        C731   1.572       .  S
C101        C764   1.560       .  S
C101        C788   1.576       .  S
C101       C1259   1.566       .  S
C102        C659   1.573       .  S
C102        C692   1.570       .  S
C102        C707   1.574       .  S
C102       C1235   1.567       .  S
O103        C118   1.265       .  A
O103       Al111   1.924       .  S
C104        O114   1.265       .  A
C104        O105   1.257       .  A
C104        C812   1.488       .  S
O105       Al107   1.880   1_545  S
O106        C108   1.261       .  A
O106       Al107   1.919   1_655  S
Al107       O115   1.911   1_565  S
Al107       O117   1.897   1_455  S
Al107       O116   1.785   1_465  S
C108        O121   1.259       .  A
C108        C740   1.489       .  S
O109        C119   1.260       .  A
O109       Al111   1.910   1_545  S
O110        C123   1.268       .  A
O110       Al120   1.931   1_655  S
Al111       O124   1.905   1_565  S
Al111       O121   1.901       .  S
Al111       O116   1.786   1_565  S
O112        C119   1.258       .  A
O112       Al120   1.892   1_655  S
O113        C122   1.265       .  A
O113       Al120   1.915       .  S
O114       Al120   1.928       .  S
O115        C122   1.263       .  A
O116       Al120   1.787   1_655  S
O117        C118   1.262       .  A
C118       C1379   1.480       .  S
C119        C668   1.486       .  S
C122       C1484   1.493       .  S
C123        O124   1.265       .  A
C123       C1307   1.498       .  S
C125       C1091   1.495       .  S
C125        C126   1.414       .  A
C125        C130   1.408       .  A
C126       C1220   1.480       .  S
C126        C127   1.402       .  A
C127        C128   1.401       .  A
C127        H132   1.085       .  S
C128        C683   1.488       .  S
C128        C129   1.419       .  A
C129        C860   1.493       .  S
C129        C130   1.413       .  A
C130        H131   1.084       .  S
C133       C1124   1.494       .  S
C133        C134   1.416       .  A
C133        C138   1.408       .  A
C134       C1004   1.483       .  S
C134        C135   1.406       .  A
C135        C136   1.407       .  A
C135        H140   1.085       .  S
C136        C716   1.494       .  S
C136        C137   1.420       .  A
C137        C779   1.487       .  S
C137        C138   1.406       .  A
C138        H139   1.085       .  S
C141       C1019   1.490       .  S
C141        C142   1.431       .  A
C141        C146   1.412       .  A
C142       C1196   1.511       .  S
C142        C143   1.412       .  A
C143        C144   1.402       .  A
C143        H148   1.083       .  S
C144        C755   1.483       .  S
C144        C145   1.408       .  A
C145        C836   1.489       .  S
C145        C146   1.396       .  A
C146        H147   1.085       .  S
C149        C587   1.567       .  S
C149        C611   1.574       .  S
C149        C635   1.567       .  S
C149       C1595   1.564       .  S
C150        C515   1.559       .  S
C150        C539   1.574       .  S
C150        C572   1.575       .  S
C150       C1628   1.569       .  S
C151        C452   1.570       .  S
C151        C467   1.567       .  S
C151        C491   1.567       .  S
C151       C1652   1.564       .  S
O152        C167   1.265   1_545  A
O152       Al160   1.904       .  S
C153        O163   1.257   1_565  A
C153        O154   1.262       .  A
C153        C596   1.484       .  S
O154       Al156   1.919       .  S
O155        C157   1.258   1_655  A
O155       Al156   1.901       .  S
Al156       O164   1.921       .  S
Al156       O166   1.929       .  S
Al156       O165   1.791   1_565  S
C157        O170   1.259       .  A
C157        C443   1.490       .  S
O158        C168   1.259       .  A
O158       Al160   1.891       .  S
O159        C172   1.261   1_655  A
O159       Al169   1.912       .  S
Al160       O173   1.915       .  S
Al160       O170   1.910   1_545  S
Al160       O165   1.792   1_455  S
O161        C168   1.264   1_655  A
O161       Al169   1.920       .  S
O162        C171   1.262   1_545  A
O162       Al169   1.909       .  S
O163       Al169   1.883       .  S
O164        C171   1.265       .  A
O165       Al169   1.789       .  S
O166        C167   1.268   1_655  A
C167       C1868   1.495       .  S
C168        C524   1.478       .  S
C171       C1772   1.496       .  S
C172        O173   1.262       .  A
C172       C1676   1.481       .  S
C174        C371   1.560       .  S
C174        C404   1.570       .  S
C174        C428   1.563       .  S
C174        C875   1.573       .  S
C175        C299   1.566       .  S
C175        C323   1.566       .  S
C175        C356   1.573       .  S
C175        C932   1.572       .  S
C176        C227   1.564       .  S
C176        C260   1.572       .  S
C176        C284   1.558       .  S
C176        C908   1.569       .  S
O177        C192   1.262       .  A
O177       Al185   1.906       .  S
C178        O188   1.258       .  A
C178        O179   1.265       .  A
C178        C236   1.487       .  S
O179       Al181   1.924       .  S
O180        C182   1.262       .  A
O180       Al181   1.901       .  S
Al181       O189   1.918       .  S
Al181       O191   1.911       .  S
Al181       O190   1.779       .  S
C182        O195   1.265       .  A
C182        C308   1.495       .  S
O183        C193   1.258       .  A
O183       Al185   1.890       .  S
O184        C197   1.264       .  A
O184       Al194   1.904       .  S
Al185       O198   1.930       .  S
Al185       O195   1.931       .  S
Al185       O190   1.780       .  S
O186        C193   1.262       .  A
O186       Al194   1.917       .  S
O187        C196   1.265       .  A
O187       Al194   1.925       .  S
O188       Al194   1.892       .  S
O189        C196   1.263       .  A
O190       Al194   1.785       .  S
O191        C192   1.263       .  A
C192       C1139   1.475       .  S
C193        C380   1.484       .  S
C196       C1052   1.481       .  S
C197        O198   1.268       .  A
C197        C956   1.489       .  S
C199        C476   1.478       .  S
C199        C200   1.410       .  A
C199        C204   1.401       .  A
C200        C644   1.486       .  S
C200        C201   1.404       .  A
C201        C202   1.410       .  A
C201        H206   1.084       .  S
C202        C251   1.493       .  S
C202        C203   1.421       .  A
C203        C332   1.488       .  S
C203        C204   1.403       .  A
C204        H205   1.085       .  S
C207        C563   1.502       .  S
C207        C208   1.426       .  A
C207        C212   1.410       .  A
C208        C500   1.490       .  S
C208        C209   1.411       .  A
C209        C210   1.400       .  A
C209        H214   1.085       .  S
C210        C419   1.481       .  S
C210        C211   1.405       .  A
C211        C275   1.481       .  S
C211        C212   1.399       .  A
C212        H213   1.084       .  S
C215        C620   1.506       .  S
C215        C216   1.422       .  A
C215        C220   1.410       .  A
C216        C548   1.479       .  S
C216        C217   1.406       .  A
C217        C218   1.400       .  A
C217        H222   1.085       .  S
C218        C347   1.487       .  S
C218        C219   1.409       .  A
C219        C395   1.476       .  S
C219        C220   1.407       .  A
C220        H221   1.084       .  S
C223        C224   1.399       .  A
C223        C228   1.406       .  A
C223        H233   1.084       .  S
C224        C229   1.481       .  S
C224        C225   1.401       .  A
C225        C226   1.398       .  A
C225        O230   1.372       .  S
C226        C227   1.417       .  A
C226        H231   1.079       .  S
C227        C228   1.424       .  A
C228        O232   1.374       .  S
C229        C234   1.405       .  A
C229        C238   1.402       .  A
O230        H246   0.991       .  S
O232        H243   0.992       .  S
C234        C235   1.398       .  A
C234        O239   1.371       .  S
C235        C236   1.407       .  A
C235        H240   1.083       .  S
C236        C237   1.415       .  A
C237        C238   1.403       .  A
C237        O241   1.372       .  S
C238        H242   1.084       .  S
O239        H244   0.992       .  S
O241        H245   0.992       .  S
C247        C248   1.408       .  A
C247        C252   1.400       .  A
C247        H257   1.083       .  S
C248        C253   1.496       .  S
C248        C249   1.411       .  A
C249        C250   1.404       .  A
C249        O254   1.373       .  S
C250        C251   1.406       .  A
C250        H255   1.084       .  S
C251        C252   1.409       .  A
C252        O256   1.370       .  S
C253        C258   1.408       .  A
C253        C262   1.399       .  A
O254        H270   0.993       .  S
O256        H267   0.992       .  S
C258        C259   1.403       .  A
C258        O263   1.371       .  S
C259        C260   1.417       .  A
C259        H264   1.083       .  S
C260        C261   1.431       .  A
C261        C262   1.401       .  A
C261        O265   1.373       .  S
C262        H266   1.084       .  S
O263        H268   0.992       .  S
O265        H269   0.993       .  S
C271        C272   1.408       .  A
C271        C276   1.398       .  A
C271        H281   1.083       .  S
C272        C277   1.489       .  S
C272        C273   1.411       .  A
C273        C274   1.400       .  A
C273        O278   1.371       .  S
C274        C275   1.403       .  A
C274        H279   1.083       .  S
C275        C276   1.406       .  A
C276        O280   1.372       .  S
C277        C282   1.408       .  A
C277        C286   1.402       .  A
O278        H294   0.992       .  S
O280        H291   0.993       .  S
C282        C283   1.397       .  A
C282        O287   1.372       .  S
C283        C284   1.415       .  A
C283        H288   1.083       .  S
C284        C285   1.423       .  A
C285        C286   1.405       .  A
C285        O289   1.375       .  S
C286        H290   1.082       .  S
O287        H292   0.991       .  S
O289        H293   0.992       .  S
C295        C296   1.403       .  A
C295        C300   1.405       .  A
C295        H305   1.083       .  S
C296        C301   1.495       .  S
C296        C297   1.407       .  A
C297        C298   1.400       .  A
C297        O302   1.371       .  S
C298        C299   1.416       .  A
C298        H303   1.080       .  S
C299        C300   1.423       .  A
C300        O304   1.371       .  S
C301        C306   1.411       .  A
C301        C310   1.406       .  A
O302        H318   0.992       .  S
O304        H315   0.992       .  S
C306        C307   1.402       .  A
C306        O311   1.372       .  S
C307        C308   1.408       .  A
C307        H312   1.083       .  S
C308        C309   1.415       .  A
C309        C310   1.404       .  A
C309        O313   1.371       .  S
C310        H314   1.083       .  S
O311        H316   0.992       .  S
O313        H317   0.992       .  S
C319        C320   1.400       .  A
C319        C324   1.405       .  A
C319        H329   1.083       .  S
C320        C325   1.493       .  S
C320        C321   1.407       .  A
C321        C322   1.400       .  A
C321        O326   1.372       .  S
C322        C323   1.417       .  A
C322        H327   1.083       .  S
C323        C324   1.429       .  A
C324        O328   1.372       .  S
C325        C330   1.414       .  A
C325        C334   1.405       .  A
O326        H342   0.993       .  S
O328        H339   0.992       .  S
C330        C331   1.404       .  A
C330        O335   1.371       .  S
C331        C332   1.403       .  A
C331        H336   1.083       .  S
C332        C333   1.410       .  A
C333        C334   1.399       .  A
C333        O337   1.372       .  S
C334        H338   1.083       .  S
O335        H340   0.991       .  S
O337        H341   0.991       .  S
C343        C344   1.406       .  A
C343        C348   1.404       .  A
C343        H353   1.083       .  S
C344        C349   1.495       .  S
C344        C345   1.414       .  A
C345        C346   1.405       .  A
C345        O350   1.372       .  S
C346        C347   1.403       .  A
C346        H351   1.084       .  S
C347        C348   1.407       .  A
C348        O352   1.371       .  S
C349        C354   1.408       .  A
C349        C358   1.398       .  A
O350        H366   0.992       .  S
O352        H363   0.991       .  S
C354        C355   1.408       .  A
C354        O359   1.372       .  S
C355        C356   1.417       .  A
C355        H360   1.080       .  S
C356        C357   1.426       .  A
C357        C358   1.401       .  A
C357        O361   1.370       .  S
C358        H362   1.084       .  S
O359        H364   0.992       .  S
O361        H365   0.992       .  S
C367        C368   1.398       .  A
C367        C372   1.402       .  A
C367        H377   1.084       .  S
C368        C373   1.480       .  S
C368        C369   1.402       .  A
C369        C370   1.397       .  A
C369        O374   1.371       .  S
C370        C371   1.416       .  A
C370        H375   1.083       .  S
C371        C372   1.429       .  A
C372        O376   1.371       .  S
C373        C378   1.407       .  A
C373        C382   1.402       .  A
O374        H390   0.991       .  S
O376        H387   0.991       .  S
C378        C379   1.400       .  A
C378        O383   1.372       .  S
C379        C380   1.407       .  A
C379        H384   1.083       .  S
C380        C381   1.414       .  A
C381        C382   1.399       .  A
C381        O385   1.372       .  S
C382        H386   1.084       .  S
O383        H388   0.991       .  S
O385        H389   0.993       .  S
C391        C392   1.403       .  A
C391        C396   1.399       .  A
C391        H401   1.084       .  S
C392        C397   1.478       .  S
C392        C393   1.407       .  A
C393        C394   1.401       .  A
C393        O398   1.371       .  S
C394        C395   1.403       .  A
C394        H399   1.083       .  S
C395        C396   1.405       .  A
C396        O400   1.371       .  S
C397        C402   1.400       .  A
C397        C406   1.395       .  A
O398        H414   0.992       .  S
O400        H411   0.991       .  S
C402        C403   1.397       .  A
C402        O407   1.372       .  S
C403        C404   1.418       .  A
C403        H408   1.083       .  S
C404        C405   1.432       .  A
C405        C406   1.404       .  A
C405        O409   1.371       .  S
C406        H410   1.084       .  S
O407        H412   0.991       .  S
O409        H413   0.993       .  S
C415        C416   1.407       .  A
C415        C420   1.402       .  A
C415        H425   1.083       .  S
C416        C421   1.490       .  S
C416        C417   1.412       .  A
C417        C418   1.400       .  A
C417        O422   1.372       .  S
C418        C419   1.401       .  A
C418        H423   1.084       .  S
C419        C420   1.406       .  A
C420        O424   1.371       .  S
C421        C426   1.407       .  A
C421        C430   1.400       .  A
O422        H438   0.992       .  S
O424        H435   0.991       .  S
C426        C427   1.403       .  A
C426        O431   1.372       .  S
C427        C428   1.415       .  A
C427        H432   1.079       .  S
C428        C429   1.425       .  A
C429        C430   1.401       .  A
C429        O433   1.373       .  S
C430        H434   1.084       .  S
O431        H436   0.992       .  S
O433        H437   0.992       .  S
C439        C440   1.402       .  A
C439        C444   1.400       .  A
C439        H449   1.084   1_455  S
C440        C445   1.483       .  S
C440        C441   1.406       .  A
C441        C442   1.402       .  A
C441        O446   1.373       .  S
C442        C443   1.409       .  A
C442        H447   1.083   1_565  S
C443        C444   1.413       .  A
C444        O448   1.370   1_455  S
C445        C450   1.402       .  A
C445        C454   1.400       .  A
O446        H462   0.990       .  S
O448        H459   0.992       .  S
C450        C451   1.397       .  A
C450        O455   1.372       .  S
C451        C452   1.420       .  A
C451        H456   1.079       .  S
C452        C453   1.423       .  A
C453        C454   1.402       .  A
C453        O457   1.372       .  S
C454        H458   1.084       .  S
O455        H460   0.993       .  S
O457        H461   0.991       .  S
C463        C464   1.399   1_455  A
C463        C468   1.400       .  A
C463        H473   1.084       .  S
C464        C469   1.482       .  S
C464        C465   1.402       .  A
C465        C466   1.402   1_655  A
C465        O470   1.372       .  S
C466        C467   1.418       .  A
C466        H471   1.079       .  S
C467        C468   1.423       .  A
C468        O472   1.373       .  S
C469        C474   1.409       .  A
C469        C478   1.404       .  A
O470        H486   0.993       .  S
O472        H483   0.991       .  S
C474        C475   1.396       .  A
C474        O479   1.372       .  S
C475        C476   1.400       .  A
C475        H480   1.084       .  S
C476        C477   1.408       .  A
C477        C478   1.404       .  A
C477        O481   1.371       .  S
C478        H482   1.083       .  S
O479        H484   0.992       .  S
O481        H485   0.991       .  S
C487        C488   1.404       .  A
C487        C492   1.406       .  A
C487        H497   1.083   1_565  S
C488        C493   1.492   1_565  S
C488        C489   1.404       .  A
C489        C490   1.399       .  A
C489        O494   1.374       .  S
C490        C491   1.419       .  A
C490        H495   1.077       .  S
C491        C492   1.422       .  A
C492        O496   1.374       .  S
C493        C498   1.414       .  A
C493        C502   1.403       .  A
O494        H510   0.994       .  S
O496        H507   0.990       .  S
C498        C499   1.404       .  A
C498        O503   1.371       .  S
C499        C500   1.404       .  A
C499        H504   1.083       .  S
C500        C501   1.412       .  A
C501        C502   1.398       .  A
C501        O505   1.372       .  S
C502        H506   1.084       .  S
O503        H508   0.992       .  S
O505        H509   0.992       .  S
C511        C512   1.399       .  A
C511        C516   1.398       .  A
C511        H521   1.084       .  S
C512        C517   1.484       .  S
C512        C513   1.405       .  A
C513        C514   1.401       .  A
C513        O518   1.373       .  S
C514        C515   1.415       .  A
C514        H519   1.079       .  S
C515        C516   1.423       .  A
C516        O520   1.372       .  S
C517        C522   1.410       .  A
C517        C526   1.404       .  A
O518        H534   0.992       .  S
O520        H531   0.991       .  S
C522        C523   1.400       .  A
C522        O527   1.371       .  S
C523        C524   1.404       .  A
C523        H528   1.084       .  S
C524        C525   1.410       .  A
C525        C526   1.400       .  A
C525        O529   1.371   1_455  S
C526        H530   1.084   1_455  S
O527        H532   0.991       .  S
O529        H533   0.991       .  S
C535        C536   1.398   1_455  A
C535        C540   1.407       .  A
C535        H545   1.084       .  S
C536        C541   1.479       .  S
C536        C537   1.399   1_655  A
C537        C538   1.395       .  A
C537        O542   1.372   1_455  S
C538        C539   1.421       .  A
C538        H543   1.083       .  S
C539        C540   1.428       .  A
C540        O544   1.372       .  S
C541        C546   1.408       .  A
C541        C550   1.403       .  A
O542        H558   0.993       .  S
O544        H555   0.993       .  S
C546        C547   1.402       .  A
C546        O551   1.371       .  S
C547        C548   1.402       .  A
C547        H552   1.083       .  S
C548        C549   1.408       .  A
C549        C550   1.398       .  A
C549        O553   1.372       .  S
C550        H554   1.084       .  S
O551        H556   0.992       .  S
O553        H557   0.992       .  S
C559        C560   1.410       .  A
C559        C564   1.411       .  A
C559        H569   1.083       .  S
C560        C565   1.498       .  S
C560        C561   1.408       .  A
C561        C562   1.397       .  A
C561        O566   1.374       .  S
C562        C563   1.408       .  A
C562        H567   1.084       .  S
C563        C564   1.413       .  A
C564        O568   1.373       .  S
C565        C570   1.408       .  A
C565        C574   1.403       .  A
O566        H582   0.992       .  S
O568        H579   0.992       .  S
C570        C571   1.400       .  A
C570        O575   1.375       .  S
C571        C572   1.417       .  A
C571        H576   1.077       .  S
C572        C573   1.424       .  A
C573        C574   1.407       .  A
C573        O577   1.371       .  S
C574        H578   1.083       .  S
O575        H580   0.992       .  S
O577        H581   0.992       .  S
C583        C584   1.393       .  A
C583        C588   1.400       .  A
C583        H593   1.084       .  S
C584        C589   1.476       .  S
C584        C585   1.401       .  A
C585        C586   1.402       .  A
C585        O590   1.371       .  S
C586        C587   1.418       .  A
C586        H591   1.083       .  S
C587        C588   1.430       .  A
C588        O592   1.373       .  S
C589        C594   1.404       .  A
C589        C598   1.402       .  A
O590        H606   0.992       .  S
O592        H603   0.993       .  S
C594        C595   1.398       .  A
C594        O599   1.371   1_565  S
C595        C596   1.406       .  A
C595        H600   1.083   1_565  S
C596        C597   1.414       .  A
C597        C598   1.403       .  A
C597        O601   1.371       .  S
C598        H602   1.084       .  S
O599        H604   0.992       .  S
O601        H605   0.992       .  S
C607        C608   1.400   1_565  A
C607        C612   1.401       .  A
C607        H617   1.083       .  S
C608        C613   1.503       .  S
C608        C609   1.409   1_545  A
C609        C610   1.408       .  A
C609        O614   1.371   1_565  S
C610        C611   1.419       .  A
C610        H615   1.083       .  S
C611        C612   1.428       .  A
C612        O616   1.372       .  S
C613        C618   1.414       .  A
C613        C622   1.407       .  A
O614        H630   0.992       .  S
O616        H627   0.993       .  S
C618        C619   1.399       .  A
C618        O623   1.372       .  S
C619        C620   1.405       .  A
C619        H624   1.080       .  S
C620        C621   1.416       .  A
C621        C622   1.408       .  A
C621        O625   1.372       .  S
C622        H626   1.083       .  S
O623        H628   0.993       .  S
O625        H629   0.992       .  S
C631        C632   1.399       .  A
C631        C636   1.404       .  A
C631        H641   1.084       .  S
C632        C637   1.480       .  S
C632        C633   1.401       .  A
C633        C634   1.400       .  A
C633        O638   1.372       .  S
C634        C635   1.419       .  A
C634        H639   1.078       .  S
C635        C636   1.424       .  A
C636        O640   1.372       .  S
C637        C642   1.406       .  A
C637        C646   1.403       .  A
O638        H654   0.991       .  S
O640        H651   0.991       .  S
C642        C643   1.403       .  A
C642        O647   1.371       .  S
C643        C644   1.405       .  A
C643        H648   1.084       .  S
C644        C645   1.409       .  A
C645        C646   1.402       .  A
C645        O649   1.371       .  S
C646        H650   1.084       .  S
O647        H652   0.992       .  S
O649        H653   0.992       .  S
C655        C656   1.400       .  A
C655        C660   1.407       .  A
C655        H665   1.084       .  S
C656        C661   1.478       .  S
C656        C657   1.398       .  A
C657        C658   1.394       .  A
C657        O662   1.372       .  S
C658        C659   1.421       .  A
C658        H663   1.079       .  S
C659        C660   1.425       .  A
C660        O664   1.375       .  S
C661        C666   1.405       .  A
C661        C670   1.401       .  A
O662        H678   0.992       .  S
O664        H675   0.993       .  S
C666        C667   1.399       .  A
C666        O671   1.372       .  S
C667        C668   1.407       .  A
C667        H672   1.083   1_655  S
C668        C669   1.415       .  A
C669        C670   1.400       .  A
C669        O673   1.372       .  S
C670        H674   1.084       .  S
O671        H676   0.991   1_655  S
O673        H677   0.993   1_545  S
C679        C680   1.405       .  A
C679        C684   1.399       .  A
C679        H689   1.084   1_455  S
C680        C685   1.492   1_455  S
C680        C681   1.412       .  A
C681        C682   1.408       .  A
C681        O686   1.373       .  S
C682        C683   1.404       .  A
C682        H687   1.083       .  S
C683        C684   1.408       .  A
C684        O688   1.372       .  S
C685        C690   1.406       .  A
C685        C694   1.402       .  A
O686        H702   0.991       .  S
O688        H699   0.991       .  S
C690        C691   1.403       .  A
C690        O695   1.372   1_655  S
C691        C692   1.415       .  A
C691        H696   1.076       .  S
C692        C693   1.426       .  A
C693        C694   1.403       .  A
C693        O697   1.372       .  S
C694        H698   1.084       .  S
O695        H700   0.992       .  S
O697        H701   0.991       .  S
C703        C704   1.398       .  A
C703        C708   1.399       .  A
C703        H713   1.083       .  S
C704        C709   1.501       .  S
C704        C705   1.408       .  A
C705        C706   1.408       .  A
C705        O710   1.371       .  S
C706        C707   1.421       .  A
C706        H711   1.083       .  S
C707        C708   1.431       .  A
C708        O712   1.371       .  S
C709        C714   1.415   1_545  A
C709        C718   1.408   1_545  A
O710        H726   0.992   1_545  S
O712        H723   0.992       .  S
C714        C715   1.397       .  A
C714        O719   1.372   1_565  S
C715        C716   1.399       .  A
C715        H720   1.076       .  S
C716        C717   1.412       .  A
C717        C718   1.407       .  A
C717        O721   1.372       .  S
C718        H722   1.083       .  S
O719        H724   0.992   1_545  S
O721        H725   0.991       .  S
C727        C728   1.403       .  A
C727        C732   1.408       .  A
C727        H737   1.083       .  S
C728        C733   1.486       .  S
C728        C729   1.401       .  A
C729        C730   1.395       .  A
C729        O734   1.372       .  S
C730        C731   1.419       .  A
C730        H735   1.079       .  S
C731        C732   1.424       .  A
C732        O736   1.372       .  S
C733        C738   1.406       .  A
C733        C742   1.404       .  A
O734        H750   0.993       .  S
O736        H747   0.991       .  S
C738        C739   1.403       .  A
C738        O743   1.371       .  S
C739        C740   1.408       .  A
C739        H744   1.083       .  S
C740        C741   1.413       .  A
C741        C742   1.402       .  A
C741        O745   1.372       .  S
C742        H746   1.084       .  S
O743        H748   0.991       .  S
O745        H749   0.992       .  S
C751        C752   1.400       .  A
C751        C756   1.402       .  A
C751        H761   1.083       .  S
C752        C757   1.469       .  S
C752        C753   1.404       .  A
C753        C754   1.394       .  A
C753        O758   1.372       .  S
C754        C755   1.404       .  A
C754        H759   1.083       .  S
C755        C756   1.410       .  A
C756        O760   1.372       .  S
C757        C762   1.399       .  A
C757        C766   1.395   1_455  A
O758        H774   0.992       .  S
O760        H771   0.992       .  S
C762        C763   1.397   1_455  A
C762        O767   1.372       .  S
C763        C764   1.417       .  A
C763        H768   1.077       .  S
C764        C765   1.428       .  A
C765        C766   1.399       .  A
C765        O769   1.374       .  S
C766        H770   1.084       .  S
O767        H772   0.992       .  S
O769        H773   0.990       .  S
C775        C776   1.414       .  A
C775        C780   1.399       .  A
C775        H785   1.081       .  S
C776        C781   1.514       .  S
C776        C777   1.419       .  A
C777        C778   1.410       .  A
C777        O782   1.372       .  S
C778        C779   1.402       .  A
C778        H783   1.084       .  S
C779        C780   1.403       .  A
C780        O784   1.372       .  S
C781        C786   1.415       .  A
C781        C790   1.404       .  A
O782        H798   0.992       .  S
O784        H795   0.992       .  S
C786        C787   1.408       .  A
C786        O791   1.370       .  S
C787        C788   1.416       .  A
C787        H792   1.083       .  S
C788        C789   1.430       .  A
C789        C790   1.402       .  A
C789        O793   1.373       .  S
C790        H794   1.081       .  S
O791        H796   0.993       .  S
O793        H797   0.993       .  S
C799        C800   1.396       .  A
C799        C804   1.401       .  A
C799        H809   1.084       .  S
C800        C805   1.486       .  S
C800        C801   1.405       .  A
C801        C802   1.401       .  A
C801        O806   1.371       .  S
C802        C803   1.417       .  A
C802        H807   1.083       .  S
C803        C804   1.431       .  A
C804        O808   1.371       .  S
C805        C810   1.410       .  A
C805        C814   1.401       .  A
O806        H822   0.991       .  S
O808        H819   0.992       .  S
C810        C811   1.403       .  A
C810        O815   1.372       .  S
C811        C812   1.407       .  A
C811        H816   1.083       .  S
C812        C813   1.416       .  A
C813        C814   1.399       .  A
C813        O817   1.372   1_545  S
C814        H818   1.084       .  S
O815        H820   0.991       .  S
O817        H821   0.993       .  S
C823        C824   1.402       .  A
C823        C828   1.407       .  A
C823        H833   1.084   1_545  S
C824        C829   1.491   1_545  S
C824        C825   1.404       .  A
C825        C826   1.400       .  A
C825        O830   1.373       .  S
C826        C827   1.417       .  A
C826        H831   1.083       .  S
C827        C828   1.427       .  A
C828        O832   1.370       .  S
C829        C834   1.412       .  A
C829        C838   1.405       .  A
O830        H846   0.993       .  S
O832        H843   0.994       .  S
C834        C835   1.401       .  A
C834        O839   1.371   1_565  S
C835        C836   1.403       .  A
C835        H840   1.084       .  S
C836        C837   1.409       .  A
C837        C838   1.403       .  A
C837        O841   1.371       .  S
C838        H842   1.083       .  S
O839        H844   0.992       .  S
O841        H845   0.991       .  S
C847        C848   1.402       .  A
C847        C852   1.406       .  A
C847        H857   1.083       .  S
C848        C853   1.495       .  S
C848        C849   1.406       .  A
C849        C850   1.397       .  A
C849        O854   1.372       .  S
C850        C851   1.418       .  A
C850        H855   1.078       .  S
C851        C852   1.424       .  A
C852        O856   1.371       .  S
C853        C858   1.411       .  A
C853        C862   1.407       .  A
O854        H870   0.991       .  S
O856        H867   0.992       .  S
C858        C859   1.401       .  A
C858        O863   1.372       .  S
C859        C860   1.406       .  A
C859        H864   1.084       .  S
C860        C861   1.410       .  A
C861        C862   1.401       .  A
C861        O865   1.371       .  S
C862        H866   1.083       .  S
O863        H868   0.992       .  S
O865        H869   0.991       .  S
C871        C872   1.401       .  A
C871        C876   1.407   1_565  A
C871        H881   1.083       .  S
C872        C877   1.493       .  S
C872        C873   1.404       .  A
C873        C874   1.402   1_565  A
C873        O878   1.372       .  S
C874        C875   1.420       .  A
C874        H879   1.079       .  S
C875        C876   1.424       .  A
C876        O880   1.372       .  S
C877        C882   1.409       .  A
C877        C886   1.403       .  A
O878        H894   0.991       .  S
O880        H891   0.993       .  S
C882        C883   1.407       .  A
C882        O887   1.371       .  S
C883        C884   1.408       .  A
C883        H888   1.083       .  S
C884        C885   1.416       .  A
C885        C886   1.403       .  A
C885        O889   1.372       .  S
C886        H890   1.084       .  S
O887        H892   0.992       .  S
O889        H893   0.991       .  S
C895        C896   1.407       .  A
C895        C900   1.405       .  A
C895        H905   1.084       .  S
C896        C901   1.492       .  S
C896        C897   1.410       .  A
C897        C898   1.403       .  A
C897        O902   1.372       .  S
C898        C899   1.405       .  A
C898        H903   1.084       .  S
C899        C900   1.410       .  A
C900        O904   1.372       .  S
C901        C906   1.407       .  A
C901        C910   1.399       .  A
O902        H918   0.992       .  S
O904        H915   0.991       .  S
C906        C907   1.407       .  A
C906        O911   1.373       .  S
C907        C908   1.417       .  A
C907        H912   1.080       .  S
C908        C909   1.424       .  A
C909        C910   1.401       .  A
C909        O913   1.373       .  S
C910        H914   1.084       .  S
O911        H916   0.992       .  S
O913        H917   0.992       .  S
C919        C920   1.407       .  A
C919        C924   1.408       .  A
C919        H929   1.083       .  S
C920        C925   1.494       .  S
C920        C921   1.410       .  A
C921        C922   1.397       .  A
C921        O926   1.372       .  S
C922        C923   1.406       .  A
C922        H927   1.083       .  S
C923        C924   1.414       .  A
C924        O928   1.371       .  S
C925        C930   1.405       .  A
C925        C934   1.400       .  A
O926        H942   0.992       .  S
O928        H939   0.992       .  S
C930        C931   1.403       .  A
C930        O935   1.372       .  S
C931        C932   1.419   1_455  A
C931        H936   1.083   1_455  S
C932        C933   1.430   1_655  A
C933        C934   1.404       .  A
C933        O937   1.371       .  S
C934        H938   1.084       .  S
O935        H940   0.991       .  S
O937        H941   0.993       .  S
C943        C944   1.394       .  A
C943        C948   1.397       .  A
C943        H953   1.084       .  S
C944        C949   1.483       .  S
C944        C945   1.403       .  A
C945        C946   1.407       .  A
C945        O950   1.371       .  S
C946        C947   1.420       .  A
C946        H951   1.083       .  S
C947        C948   1.431       .  A
C948        O952   1.372   1_545  S
C949        C954   1.407       .  A
C949        C958   1.403       .  A
O950        H966   0.990       .  S
O952        H963   0.990       .  S
C954        C955   1.402       .  A
C954        O959   1.372       .  S
C955        C956   1.406       .  A
C955        H960   1.083       .  S
C956        C957   1.414       .  A
C957        C958   1.404       .  A
C957        O961   1.371       .  S
C958        H962   1.084       .  S
O959        H964   0.992       .  S
O961        H965   0.992       .  S
C967        C968   1.397       .  A
C967        C972   1.398       .  A
C967        H977   1.083       .  S
C968        C973   1.479       .  S
C968        C969   1.404       .  A
C969        C970   1.399       .  A
C969        O974   1.372       .  S
C970        C971   1.417       .  A
C970        H975   1.078       .  S
C971        C972   1.424       .  A
C972        O976   1.373       .  S
C973        C978   1.406       .  A
C973        C982   1.401       .  A
O974        H990   0.992       .  S
O976        H987   0.992       .  S
C978        C979   1.399       .  A
C978        O983   1.372       .  S
C979        C980   1.407       .  A
C979        H984   1.083       .  S
C980        C981   1.414       .  A
C981        C982   1.398       .  A
C981        O985   1.372       .  S
C982        H986   1.084       .  S
O983        H988   0.990       .  S
O985        H989   0.992       .  S
C991        C992   1.395       .  A
C991        C996   1.400       .  A
C991       H1001   1.084       .  S
C992        C997   1.480       .  S
C992        C993   1.403       .  A
C993        C994   1.403       .  A
C993        O998   1.372   1_565  S
C994        C995   1.417       .  A
C994        H999   1.077   1_565  S
C995        C996   1.429       .  A
C996       O1000   1.374       .  S
C997       C1002   1.407       .  A
C997       C1006   1.403       .  A
O998       H1014   0.992       .  S
O1000      H1011   0.992       .  S
C1002      C1003   1.402       .  A
C1002      O1007   1.371       .  S
C1003      C1004   1.404       .  A
C1003      H1008   1.083       .  S
C1004      C1005   1.407       .  A
C1005      C1006   1.400       .  A
C1005      O1009   1.372       .  S
C1006      H1010   1.084       .  S
O1007      H1012   0.992       .  S
O1009      H1013   0.990       .  S
C1015      C1016   1.401       .  A
C1015      C1020   1.389       .  A
C1015      H1025   1.083       .  S
C1016      C1021   1.491       .  S
C1016      C1017   1.414       .  A
C1017      C1018   1.407       .  A
C1017      O1022   1.371       .  S
C1018      C1019   1.406       .  A
C1018      H1023   1.083       .  S
C1019      C1020   1.413       .  A
C1020      O1024   1.373       .  S
C1021      C1026   1.407       .  A
C1021      C1030   1.401       .  A
O1022      H1038   0.991       .  S
O1024      H1035   0.992       .  S
C1026      C1027   1.394       .  A
C1026      O1031   1.374       .  S
C1027      C1028   1.415       .  A
C1027      H1032   1.077       .  S
C1028      C1029   1.424       .  A
C1029      C1030   1.405       .  A
C1029      O1033   1.370       .  S
C1030      H1034   1.083       .  S
O1031      H1036   0.993       .  S
O1033      H1037   0.992       .  S
C1039      C1040   1.401       .  A
C1039      C1044   1.400       .  A
C1039      H1049   1.084       .  S
C1040      C1045   1.500       .  S
C1040      C1041   1.410       .  A
C1041      C1042   1.410       .  A
C1041      O1046   1.371       .  S
C1042      C1043   1.417       .  A
C1042      H1047   1.079       .  S
C1043      C1044   1.424       .  A
C1044      O1048   1.373       .  S
C1045      C1050   1.414       .  A
C1045      C1054   1.410       .  A
O1046      H1062   0.991       .  S
O1048      H1059   0.990       .  S
C1050      C1051   1.398       .  A
C1050      O1055   1.372       .  S
C1051      C1052   1.400       .  A
C1051      H1056   1.084       .  S
C1052      C1053   1.409       .  A
C1053      C1054   1.411       .  A
C1053      O1057   1.371       .  S
C1054      H1058   1.083       .  S
O1055      H1060   0.993       .  S
O1057      H1061   0.991       .  S
C1063      C1064   1.397       .  A
C1063      C1068   1.402       .  A
C1063      H1073   1.084       .  S
C1064      C1069   1.487       .  S
C1064      C1065   1.404       .  A
C1065      C1066   1.404       .  A
C1065      O1070   1.372       .  S
C1066      C1067   1.417       .  A
C1066      H1071   1.083       .  S
C1067      C1068   1.431       .  A
C1068      O1072   1.372       .  S
C1069      C1074   1.408       .  A
C1069      C1078   1.402       .  A
O1070      H1086   0.991       .  S
O1072      H1083   0.990       .  S
C1074      C1075   1.404       .  A
C1074      O1079   1.371       .  S
C1075      C1076   1.409       .  A
C1075      H1080   1.083       .  S
C1076      C1077   1.416       .  A
C1077      C1078   1.401       .  A
C1077      O1081   1.371       .  S
C1078      H1082   1.084       .  S
O1079      H1084   0.992       .  S
O1081      H1085   0.992       .  S
C1087      C1088   1.404       .  A
C1087      C1092   1.406       .  A
C1087      H1097   1.083       .  S
C1088      C1093   1.487       .  S
C1088      C1089   1.407       .  A
C1089      C1090   1.403       .  A
C1089      O1094   1.371       .  S
C1090      C1091   1.405       .  A
C1090      H1095   1.083       .  S
C1091      C1092   1.412       .  A
C1092      O1096   1.371       .  S
C1093      C1098   1.402       .  A
C1093      C1102   1.399       .  A
O1094      H1110   0.992       .  S
O1096      H1107   0.992       .  S
C1098      C1099   1.403       .  A
C1098      O1103   1.372       .  S
C1099      C1100   1.419       .  A
C1099      H1104   1.078       .  S
C1100      C1101   1.425       .  A
C1101      C1102   1.406       .  A
C1101      O1105   1.372       .  S
C1102      H1106   1.084       .  S
O1103      H1108   0.991       .  S
O1105      H1109   0.991       .  S
C1111      C1112   1.407       .  A
C1111      C1116   1.410       .  A
C1111      H1121   1.082       .  S
C1112      C1117   1.505       .  S
C1112      C1113   1.410       .  A
C1113      C1114   1.398       .  A
C1113      O1118   1.372       .  S
C1114      C1115   1.418       .  A
C1114      H1119   1.080       .  S
C1115      C1116   1.423       .  A
C1116      O1120   1.370       .  S
C1117      C1122   1.417       .  A
C1117      C1126   1.408       .  A
O1118      H1134   0.993       .  S
O1120      H1131   0.992       .  S
C1122      C1123   1.410       .  A
C1122      O1127   1.371       .  S
C1123      C1124   1.406       .  A
C1123      H1128   1.081       .  S
C1124      C1125   1.406       .  A
C1125      C1126   1.397       .  A
C1125      O1129   1.372       .  S
C1126      H1130   1.083       .  S
O1127      H1132   0.991       .  S
O1129      H1133   0.991       .  S
C1135      C1136   1.404       .  A
C1135      C1140   1.396       .  A
C1135      H1145   1.083       .  S
C1136      C1141   1.493       .  S
C1136      C1137   1.415       .  A
C1137      C1138   1.406       .  A
C1137      O1142   1.371       .  S
C1138      C1139   1.402       .  A
C1138      H1143   1.084       .  S
C1139      C1140   1.409       .  A
C1140      O1144   1.373       .  S
C1141      C1146   1.408       .  A
C1141      C1150   1.399       .  A
O1142      H1158   0.991       .  S
O1144      H1155   0.992       .  S
C1146      C1147   1.399   1_655  A
C1146      O1151   1.372       .  S
C1147      C1148   1.415       .  A
C1147      H1152   1.083       .  S
C1148      C1149   1.432   1_455  A
C1149      C1150   1.403       .  A
C1149      O1153   1.370   1_655  S
C1150      H1154   1.084       .  S
O1151      H1156   0.993       .  S
O1153      H1157   0.992       .  S
C1159      C1160   1.403       .  A
C1159      C1164   1.404       .  A
C1159      H1169   1.083       .  S
C1160      C1165   1.495       .  S
C1160      C1161   1.407       .  A
C1161      C1162   1.398       .  A
C1161      O1166   1.371       .  S
C1162      C1163   1.416       .  A
C1162      H1167   1.082       .  S
C1163      C1164   1.426       .  A
C1164      O1168   1.371       .  S
C1165      C1170   1.413       .  A
C1165      C1174   1.409       .  A
O1166      H1182   0.993       .  S
O1168      H1179   0.991       .  S
C1170      C1171   1.399       .  A
C1170      O1175   1.372       .  S
C1171      C1172   1.402       .  A
C1171      H1176   1.084       .  S
C1172      C1173   1.406       .  A
C1173      C1174   1.403       .  A
C1173      O1177   1.372       .  S
C1174      H1178   1.083       .  S
O1175      H1180   0.992       .  S
O1177      H1181   0.991       .  S
C1183      C1184   1.412       .  A
C1183      C1188   1.405       .  A
C1183      H1193   1.077       .  S
C1184      C1189   1.524       .  S
C1184      C1185   1.415       .  A
C1185      C1186   1.401       .  A
C1185      O1190   1.370       .  S
C1186      C1187   1.419       .  A
C1186      H1191   1.081       .  S
C1187      C1188   1.423       .  A
C1188      O1192   1.368       .  S
C1189      C1194   1.419       .  A
C1189      C1198   1.418       .  A
O1190      H1206   0.991       .  S
O1192      H1203   0.992   1_455  S
C1194      C1195   1.401       .  A
C1194      O1199   1.372       .  S
C1195      C1196   1.408       .  A
C1195      H1200   1.083       .  S
C1196      C1197   1.410       .  A
C1197      C1198   1.409       .  A
C1197      O1201   1.371       .  S
C1198      H1202   1.079       .  S
O1199      H1204   0.993       .  S
O1201      H1205   0.992       .  S
C1207      C1208   1.401       .  A
C1207      C1212   1.401       .  A
C1207      H1217   1.084       .  S
C1208      C1213   1.481       .  S
C1208      C1209   1.401       .  A
C1209      C1210   1.399       .  A
C1209      O1214   1.373       .  S
C1210      C1211   1.420       .  A
C1210      H1215   1.078       .  S
C1211      C1212   1.421       .  A
C1212      O1216   1.372       .  S
C1213      C1218   1.409       .  A
C1213      C1222   1.403       .  A
O1214      H1230   0.991       .  S
O1216      H1227   0.992       .  S
C1218      C1219   1.403       .  A
C1218      O1223   1.372       .  S
C1219      C1220   1.403       .  A
C1219      H1224   1.084       .  S
C1220      C1221   1.407       .  A
C1221      C1222   1.397       .  A
C1221      O1225   1.372       .  S
C1222      H1226   1.084       .  S
O1223      H1228   0.993       .  S
O1225      H1229   0.991       .  S
C1231      C1232   1.402       .  A
C1231      C1236   1.407       .  A
C1231      H1241   1.084       .  S
C1232      C1237   1.486       .  S
C1232      C1233   1.402       .  A
C1233      C1234   1.396       .  A
C1233      O1238   1.372       .  S
C1234      C1235   1.419       .  A
C1234      H1239   1.084       .  S
C1235      C1236   1.425       .  A
C1236      O1240   1.369       .  S
C1237      C1242   1.406       .  A
C1237      C1246   1.404       .  A
O1238      H1254   0.991       .  S
O1240      H1251   0.992       .  S
C1242      C1243   1.400       .  A
C1242      O1247   1.372       .  S
C1243      C1244   1.408       .  A
C1243      H1248   1.083       .  S
C1244      C1245   1.415       .  A
C1245      C1246   1.404       .  A
C1245      O1249   1.372       .  S
C1246      H1250   1.084       .  S
O1247      H1252   0.992       .  S
O1249      H1253   0.992       .  S
C1255      C1256   1.398       .  A
C1255      C1260   1.400       .  A
C1255      H1265   1.084       .  S
C1256      C1261   1.491       .  S
C1256      C1257   1.408       .  A
C1257      C1258   1.407       .  A
C1257      O1262   1.373       .  S
C1258      C1259   1.414       .  A
C1258      H1263   1.080       .  S
C1259      C1260   1.427       .  A
C1260      O1264   1.374       .  S
C1261      C1266   1.409       .  A
C1261      C1270   1.407       .  A
O1262      H1278   0.992       .  S
O1264      H1275   0.991       .  S
C1266      C1267   1.402       .  A
C1266      O1271   1.372       .  S
C1267      C1268   1.404       .  A
C1267      H1272   1.084       .  S
C1268      C1269   1.410       .  A
C1269      C1270   1.406       .  A
C1269      O1273   1.372       .  S
C1270      H1274   1.084       .  S
O1271      H1276   0.992       .  S
O1273      H1277   0.991       .  S
C1279      C1280   1.404       .  A
C1279      C1284   1.400       .  A
C1279      H1289   1.083       .  S
C1280      C1285   1.492       .  S
C1280      C1281   1.411       .  A
C1281      C1282   1.403       .  A
C1281      O1286   1.371       .  S
C1282      C1283   1.407       .  A
C1282      H1287   1.083       .  S
C1283      C1284   1.415       .  A
C1284      O1288   1.371       .  S
C1285      C1290   1.408       .  A
C1285      C1294   1.401       .  A
O1286      H1302   0.992       .  S
O1288      H1299   0.992       .  S
C1290      C1291   1.402       .  A
C1290      O1295   1.372       .  S
C1291      C1292   1.415       .  A
C1291      H1296   1.079       .  S
C1292      C1293   1.422       .  A
C1293      C1294   1.401       .  A
C1293      O1297   1.371       .  S
C1294      H1298   1.083       .  S
O1295      H1300   0.991       .  S
O1297      H1301   0.991       .  S
C1303      C1304   1.404       .  A
C1303      C1308   1.403       .  A
C1303      H1313   1.084       .  S
C1304      C1309   1.496       .  S
C1304      C1305   1.410       .  A
C1305      C1306   1.408       .  A
C1305      O1310   1.373       .  S
C1306      C1307   1.409       .  A
C1306      H1311   1.083       .  S
C1307      C1308   1.415       .  A
C1308      O1312   1.371       .  S
C1309      C1314   1.407       .  A
C1309      C1318   1.402       .  A
O1310      H1326   0.994       .  S
O1312      H1323   0.993       .  S
C1314      C1315   1.402       .  A
C1314      O1319   1.371       .  S
C1315      C1316   1.418       .  A
C1315      H1320   1.084       .  S
C1316      C1317   1.427       .  A
C1317      C1318   1.408       .  A
C1317      O1321   1.371       .  S
C1318      H1322   1.084       .  S
O1319      H1324   0.991       .  S
O1321      H1325   0.992       .  S
C1327      C1328   1.400       .  A
C1327      C1332   1.400       .  A
C1327      H1337   1.084       .  S
C1328      C1333   1.481       .  S
C1328      C1329   1.406       .  A
C1329      C1330   1.403       .  A
C1329      O1334   1.372       .  S
C1330      C1331   1.408       .  A
C1330      H1335   1.083       .  S
C1331      C1332   1.417       .  A
C1332      O1336   1.372       .  S
C1333      C1338   1.400       .  A
C1333      C1342   1.397       .  A
O1334      H1350   0.991       .  S
O1336      H1347   0.992       .  S
C1338      C1339   1.398       .  A
C1338      O1343   1.372       .  S
C1339      C1340   1.420       .  A
C1339      H1344   1.078       .  S
C1340      C1341   1.427       .  A
C1341      C1342   1.403       .  A
C1341      O1345   1.371       .  S
C1342      H1346   1.084       .  S
O1343      H1348   0.993       .  S
O1345      H1349   0.991       .  S
C1351      C1352   1.397       .  A
C1351      C1356   1.399       .  A
C1351      H1361   1.084       .  S
C1352      C1357   1.498       .  S
C1352      C1353   1.409       .  A
C1353      C1354   1.406       .  A
C1353      O1358   1.371       .  S
C1354      C1355   1.416       .  A
C1354      H1359   1.083       .  S
C1355      C1356   1.432       .  A
C1356      O1360   1.371       .  S
C1357      C1362   1.413       .  A
C1357      C1366   1.409       .  A
O1358      H1374   0.992       .  S
O1360      H1371   0.991       .  S
C1362      C1363   1.396       .  A
C1362      O1367   1.372       .  S
C1363      C1364   1.406       .  A
C1363      H1368   1.084       .  S
C1364      C1365   1.411       .  A
C1365      C1366   1.406       .  A
C1365      O1369   1.370       .  S
C1366      H1370   1.082       .  S
O1367      H1372   0.993       .  S
O1369      H1373   0.990       .  S
C1375      C1376   1.406       .  A
C1375      C1380   1.400       .  A
C1375      H1385   1.083       .  S
C1376      C1381   1.494       .  S
C1376      C1377   1.413       .  A
C1377      C1378   1.404       .  A
C1377      O1382   1.371       .  S
C1378      C1379   1.404       .  A
C1378      H1383   1.084       .  S
C1379      C1380   1.408       .  A
C1380      O1384   1.372       .  S
C1381      C1386   1.408       .  A
C1381      C1390   1.401       .  A
O1382      H1398   0.992       .  S
O1384      H1395   0.992       .  S
C1386      C1387   1.404       .  A
C1386      O1391   1.373       .  S
C1387      C1388   1.416       .  A
C1387      H1392   1.078       .  S
C1388      C1389   1.424       .  A
C1389      C1390   1.401       .  A
C1389      O1393   1.373       .  S
C1390      H1394   1.083       .  S
O1391      H1396   0.993       .  S
O1393      H1397   0.992       .  S
C1399      C1400   1.397       .  A
C1399      C1404   1.397       .  A
C1399      H1409   1.084       .  S
C1400      C1405   1.481       .  S
C1400      C1401   1.406       .  A
C1401      C1402   1.399       .  A
C1401      O1406   1.372       .  S
C1402      C1403   1.415       .  A
C1402      H1407   1.079       .  S
C1403      C1404   1.424       .  A
C1404      O1408   1.373       .  S
C1405      C1410   1.408       .  A
C1405      C1414   1.401       .  A
O1406      H1422   0.992       .  S
O1408      H1419   0.992       .  S
C1410      C1411   1.398       .  A
C1410      O1415   1.372       .  S
C1411      C1412   1.405       .  A
C1411      H1416   1.083       .  S
C1412      C1413   1.415       .  A
C1413      C1414   1.399       .  A
C1413      O1417   1.372       .  S
C1414      H1418   1.084       .  S
O1415      H1420   0.991       .  S
O1417      H1421   0.992       .  S
C1423      C1424   1.407       .  A
C1423      C1428   1.401       .  A
C1423      H1433   1.083       .  S
C1424      C1429   1.495       .  S
C1424      C1425   1.414       .  A
C1425      C1426   1.403       .  A
C1425      O1430   1.371       .  S
C1426      C1427   1.403       .  A
C1426      H1431   1.084       .  S
C1427      C1428   1.406       .  A
C1428      O1432   1.372       .  S
C1429      C1434   1.408       .  A
C1429      C1438   1.402       .  A
O1430      H1446   0.992       .  S
O1432      H1443   0.991       .  S
C1434      C1435   1.399       .  A
C1434      O1439   1.372       .  S
C1435      C1436   1.416       .  A
C1435      H1440   1.081       .  S
C1436      C1437   1.424       .  A
C1437      C1438   1.403       .  A
C1437      O1441   1.371       .  S
C1438      H1442   1.083       .  S
O1439      H1444   0.991       .  S
O1441      H1445   0.992       .  S
C1447      C1448   1.395       .  A
C1447      C1452   1.403       .  A
C1447      H1457   1.084       .  S
C1448      C1453   1.479       .  S
C1448      C1449   1.401       .  A
C1449      C1450   1.399       .  A
C1449      O1454   1.371       .  S
C1450      C1451   1.415       .  A
C1450      H1455   1.083       .  S
C1451      C1452   1.433       .  A
C1452      O1456   1.373       .  S
C1453      C1458   1.405       .  A
C1453      C1462   1.403       .  A
O1454      H1470   0.991       .  S
O1456      H1467   0.993       .  S
C1458      C1459   1.398       .  A
C1458      O1463   1.372       .  S
C1459      C1460   1.406       .  A
C1459      H1464   1.084       .  S
C1460      C1461   1.411       .  A
C1461      C1462   1.404       .  A
C1461      O1465   1.372       .  S
C1462      H1466   1.084       .  S
O1463      H1468   0.992       .  S
O1465      H1469   0.994       .  S
C1471      C1472   1.398       .  A
C1471      C1476   1.407       .  A
C1471      H1481   1.083       .  S
C1472      C1477   1.485       .  S
C1472      C1473   1.403       .  A
C1473      C1474   1.401       .  A
C1473      O1478   1.372       .  S
C1474      C1475   1.419       .  A
C1474      H1479   1.079       .  S
C1475      C1476   1.425       .  A
C1476      O1480   1.369       .  S
C1477      C1482   1.408       .  A
C1477      C1486   1.400       .  A
O1478      H1494   0.992       .  S
O1480      H1491   0.992       .  S
C1482      C1483   1.407       .  A
C1482      O1487   1.372       .  S
C1483      C1484   1.409       .  A
C1483      H1488   1.083       .  S
C1484      C1485   1.416       .  A
C1485      C1486   1.401       .  A
C1485      O1489   1.372       .  S
C1486      H1490   1.084       .  S
O1487      H1492   0.992       .  S
O1489      H1493   0.992       .  S
C1495      C1496   1.401       .  A
C1495      C1500   1.407       .  A
C1495      H1505   1.084       .  S
C1496      C1501   1.488       .  S
C1496      C1497   1.403       .  A
C1497      C1498   1.398       .  A
C1497      O1502   1.372       .  S
C1498      C1499   1.418       .  A
C1498      H1503   1.082       .  S
C1499      C1500   1.427       .  A
C1500      O1504   1.371       .  S
C1501      C1506   1.408       .  A
C1501      C1510   1.403       .  A
O1502      H1518   0.992       .  S
O1504      H1515   0.991       .  S
C1506      C1507   1.403       .  A
C1506      O1511   1.372       .  S
C1507      C1508   1.408       .  A
C1507      H1512   1.083       .  S
C1508      C1509   1.415       .  A
C1509      C1510   1.402       .  A
C1509      O1513   1.372       .  S
C1510      H1514   1.084       .  S
O1511      H1516   0.991       .  S
O1513      H1517   0.993       .  S
C1519      C1520   1.399       .  A
C1519      C1524   1.403       .  A
C1519      H1529   1.084       .  S
C1520      C1525   1.474       .  S
C1520      C1521   1.400       .  A
C1521      C1522   1.394       .  A
C1521      O1526   1.373       .  S
C1522      C1523   1.416       .  A
C1522      H1527   1.080       .  S
C1523      C1524   1.424       .  A
C1524      O1528   1.370       .  S
C1525      C1530   1.409       .  A
C1525      C1534   1.401       .  A
O1526      H1542   0.993       .  S
O1528      H1539   0.991       .  S
C1530      C1531   1.396       .  A
C1530      O1535   1.372       .  S
C1531      C1532   1.400       .  A
C1531      H1536   1.084       .  S
C1532      C1533   1.408       .  A
C1533      C1534   1.400       .  A
C1533      O1537   1.371       .  S
C1534      H1538   1.083       .  S
O1535      H1540   0.992       .  S
O1537      H1541   0.990       .  S
C1543      C1544   1.400       .  A
C1543      C1548   1.398       .  A
C1543      H1553   1.084       .  S
C1544      C1549   1.488       .  S
C1544      C1545   1.406       .  A
C1545      C1546   1.404       .  A
C1545      O1550   1.371       .  S
C1546      C1547   1.417       .  A
C1546      H1551   1.079       .  S
C1547      C1548   1.422       .  A
C1548      O1552   1.369       .  S
C1549      C1554   1.412       .  A
C1549      C1558   1.406       .  A
O1550      H1566   0.993       .  S
O1552      H1563   0.991       .  S
C1554      C1555   1.397       .  A
C1554      O1559   1.372       .  S
C1555      C1556   1.399       .  A
C1555      H1560   1.084       .  S
C1556      C1557   1.408       .  A
C1557      C1558   1.404       .  A
C1557      O1561   1.371       .  S
C1558      H1562   1.083       .  S
O1559      H1564   0.992       .  S
O1561      H1565   0.990   1_545  S
C1567      C1568   1.397       .  A
C1567      C1572   1.402       .  A
C1567      H1577   1.084       .  S
C1568      C1573   1.495       .  S
C1568      C1569   1.408       .  A
C1569      C1570   1.409       .  A
C1569      O1574   1.372       .  S
C1570      C1571   1.416       .  A
C1570      H1575   1.083       .  S
C1571      C1572   1.432       .  A
C1572      O1576   1.373       .  S
C1573      C1578   1.410       .  A
C1573      C1582   1.407       .  A
O1574      H1590   0.993       .  S
O1576      H1587   0.991       .  S
C1578      C1579   1.406       .  A
C1578      O1583   1.371       .  S
C1579      C1580   1.407       .  A
C1579      H1584   1.083       .  S
C1580      C1581   1.410       .  A
C1581      C1582   1.404       .  A
C1581      O1585   1.371       .  S
C1582      H1586   1.084       .  S
O1583      H1588   0.992       .  S
O1585      H1589   0.992       .  S
C1591      C1592   1.400       .  A
C1591      C1596   1.400       .  A
C1591      H1601   1.083       .  S
C1592      C1597   1.493       .  S
C1592      C1593   1.408       .  A
C1593      C1594   1.405       .  A
C1593      O1598   1.371       .  S
C1594      C1595   1.415       .  A
C1594      H1599   1.079       .  S
C1595      C1596   1.425       .  A
C1596      O1600   1.372       .  S
C1597      C1602   1.410       .  A
C1597      C1606   1.404       .  A
O1598      H1614   0.992       .  S
O1600      H1611   0.992       .  S
C1602      C1603   1.405       .  A
C1602      O1607   1.372       .  S
C1603      C1604   1.408       .  A
C1603      H1608   1.083       .  S
C1604      C1605   1.415       .  A
C1605      C1606   1.402       .  A
C1605      O1609   1.371       .  S
C1606      H1610   1.084       .  S
O1607      H1612   0.992       .  S
O1609      H1613   0.992       .  S
C1615      C1616   1.402       .  A
C1615      C1620   1.403       .  A
C1615      H1625   1.084       .  S
C1616      C1621   1.483       .  S
C1616      C1617   1.407       .  A
C1617      C1618   1.405       .  A
C1617      O1622   1.371       .  S
C1618      C1619   1.408       .  A
C1618      H1623   1.083       .  S
C1619      C1620   1.414       .  A
C1620      O1624   1.372       .  S
C1621      C1626   1.404       .  A
C1621      C1630   1.393       .  A
O1622      H1638   0.993       .  S
O1624      H1635   0.991       .  S
C1626      C1627   1.410       .  A
C1626      O1631   1.371       .  S
C1627      C1628   1.418       .  A
C1627      H1632   1.083       .  S
C1628      C1629   1.431       .  A
C1629      C1630   1.398       .  A
C1629      O1633   1.374       .  S
C1630      H1634   1.084       .  S
O1631      H1636   0.991       .  S
O1633      H1637   0.993       .  S
C1639      C1640   1.403       .  A
C1639      C1644   1.401       .  A
C1639      H1649   1.084       .  S
C1640      C1645   1.483       .  S
C1640      C1641   1.408       .  A
C1641      C1642   1.403       .  A
C1641      O1646   1.372       .  S
C1642      C1643   1.404       .  A
C1642      H1647   1.084       .  S
C1643      C1644   1.410       .  A
C1644      O1648   1.372       .  S
C1645      C1650   1.403       .  A
C1645      C1654   1.400       .  A
O1646      H1662   0.992       .  S
O1648      H1659   0.991       .  S
C1650      C1651   1.396       .  A
C1650      O1655   1.372       .  S
C1651      C1652   1.417       .  A
C1651      H1656   1.084       .  S
C1652      C1653   1.426       .  A
C1653      C1654   1.409       .  A
C1653      O1657   1.373       .  S
C1654      H1658   1.084       .  S
O1655      H1660   0.991       .  S
O1657      H1661   0.991       .  S
C1663      C1664   1.403       .  A
C1663      C1668   1.402       .  A
C1663      H1673   1.083       .  S
C1664      C1669   1.499       .  S
C1664      C1665   1.408       .  A
C1665      C1666   1.404       .  A
C1665      O1670   1.372       .  S
C1666      C1667   1.419       .  A
C1666      H1671   1.080       .  S
C1667      C1668   1.421       .  A
C1668      O1672   1.373       .  S
C1669      C1674   1.413       .  A
C1669      C1678   1.411       .  A
O1670      H1686   0.990       .  S
O1672      H1683   0.993       .  S
C1674      C1675   1.397       .  A
C1674      O1679   1.372       .  S
C1675      C1676   1.402       .  A
C1675      H1680   1.084       .  S
C1676      C1677   1.409       .  A
C1677      C1678   1.409       .  A
C1677      O1681   1.371   1_455  S
C1678      H1682   1.083       .  S
O1679      H1684   0.992       .  S
O1681      H1685   0.991   1_655  S
C1687      C1688   1.406       .  A
C1687      C1692   1.396       .  A
C1687      H1697   1.083       .  S
C1688      C1693   1.492       .  S
C1688      C1689   1.414       .  A
C1689      C1690   1.404       .  A
C1689      O1694   1.371       .  S
C1690      C1691   1.402       .  A
C1690      H1695   1.084       .  S
C1691      C1692   1.407       .  A
C1692      O1696   1.373       .  S
C1693      C1698   1.407       .  A
C1693      C1702   1.402       .  A
O1694      H1710   0.991       .  S
O1696      H1707   0.992       .  S
C1698      C1699   1.398       .  A
C1698      O1703   1.373       .  S
C1699      C1700   1.414       .  A
C1699      H1704   1.080       .  S
C1700      C1701   1.423       .  A
C1701      C1702   1.404       .  A
C1701      O1705   1.374       .  S
C1702      H1706   1.083       .  S
O1703      H1708   0.992       .  S
O1705      H1709   0.992       .  S
C1711      C1712   1.398       .  A
C1711      C1716   1.401       .  A
C1711      H1721   1.084       .  S
C1712      C1717   1.490       .  S
C1712      C1713   1.408       .  A
C1713      C1714   1.404       .  A
C1713      O1718   1.373       .  S
C1714      C1715   1.414       .  A
C1714      H1719   1.080       .  S
C1715      C1716   1.425       .  A
C1716      O1720   1.372       .  S
C1717      C1722   1.410       .  A
C1717      C1726   1.408       .  A
O1718      H1734   0.994       .  S
O1720      H1731   0.992       .  S
C1722      C1723   1.400       .  A
C1722      O1727   1.371       .  S
C1723      C1724   1.402       .  A
C1723      H1728   1.084       .  S
C1724      C1725   1.406       .  A
C1725      C1726   1.403       .  A
C1725      O1729   1.371       .  S
C1726      H1730   1.083       .  S
O1727      H1732   0.992       .  S
O1729      H1733   0.993       .  S
C1735      C1736   1.404       .  A
C1735      C1740   1.393       .  A
C1735      H1745   1.084       .  S
C1736      C1741   1.483       .  S
C1736      C1737   1.411       .  A
C1737      C1738   1.404       .  A
C1737      O1742   1.372       .  S
C1738      C1739   1.402       .  A
C1738      H1743   1.083   1_455  S
C1739      C1740   1.409       .  A
C1740      O1744   1.373       .  S
C1741      C1746   1.405       .  A
C1741      C1750   1.400       .  A
O1742      H1758   0.993       .  S
O1744      H1755   0.990       .  S
C1746      C1747   1.399       .  A
C1746      O1751   1.372       .  S
C1747      C1748   1.418       .  A
C1747      H1752   1.080       .  S
C1748      C1749   1.421       .  A
C1749      C1750   1.397       .  A
C1749      O1753   1.372       .  S
C1750      H1754   1.084       .  S
O1751      H1756   0.990       .  S
O1753      H1757   0.992       .  S
C1759      C1760   1.405       .  A
C1759      C1764   1.403       .  A
C1759      H1769   1.083       .  S
C1760      C1765   1.502       .  S
C1760      C1761   1.410       .  A
C1761      C1762   1.410       .  A
C1761      O1766   1.373       .  S
C1762      C1763   1.415       .  A
C1762      H1767   1.080       .  S
C1763      C1764   1.421       .  A
C1764      O1768   1.371       .  S
C1765      C1770   1.415       .  A
C1765      C1774   1.406       .  A
O1766      H1782   0.992       .  S
O1768      H1779   0.991       .  S
C1770      C1771   1.410       .  A
C1770      O1775   1.372       .  S
C1771      C1772   1.406       .  A
C1771      H1776   1.083       .  S
C1772      C1773   1.414       .  A
C1773      C1774   1.404       .  A
C1773      O1777   1.372   1_565  S
C1774      H1778   1.083       .  S
O1775      H1780   0.992       .  S
O1777      H1781   0.992       .  S
C1783      C1784   1.393       .  A
C1783      C1788   1.400       .  A
C1783      H1793   1.084       .  S
C1784      C1789   1.477       .  S
C1784      C1785   1.401       .  A
C1785      C1786   1.402       .  A
C1785      O1790   1.372       .  S
C1786      C1787   1.417       .  A
C1786      H1791   1.083       .  S
C1787      C1788   1.433       .  A
C1788      O1792   1.372       .  S
C1789      C1794   1.404       .  A
C1789      C1798   1.401       .  A
O1790      H1806   0.991       .  S
O1792      H1803   0.992       .  S
C1794      C1795   1.400       .  A
C1794      O1799   1.372       .  S
C1795      C1796   1.408       .  A
C1795      H1800   1.083       .  S
C1796      C1797   1.414       .  A
C1797      C1798   1.402       .  A
C1797      O1801   1.371       .  S
C1798      H1802   1.084       .  S
O1799      H1804   0.989       .  S
O1801      H1805   0.992       .  S
C1807      C1808   1.402       .  A
C1807      C1812   1.408       .  A
C1807      H1817   1.083       .  S
C1808      C1813   1.489       .  S
C1808      C1809   1.403       .  A
C1809      C1810   1.394       .  A
C1809      O1814   1.372       .  S
C1810      C1811   1.420       .  A
C1810      H1815   1.079       .  S
C1811      C1812   1.424       .  A
C1812      O1816   1.372       .  S
C1813      C1818   1.411       .  A
C1813      C1822   1.404       .  A
O1814      H1830   0.994       .  S
O1816      H1827   0.993       .  S
C1818      C1819   1.403       .  A
C1818      O1823   1.371       .  S
C1819      C1820   1.406       .  A
C1819      H1824   1.081       .  S
C1820      C1821   1.410       .  A
C1821      C1822   1.395       .  A
C1821      O1825   1.372       .  S
C1822      H1826   1.083       .  S
O1823      H1828   0.991       .  S
O1825      H1829   0.993       .  S
C1831      C1832   1.400       .  A
C1831      C1836   1.404       .  A
C1831      H1841   1.084       .  S
C1832      C1837   1.492       .  S
C1832      C1833   1.405       .  A
C1833      C1834   1.408       .  A
C1833      O1838   1.372       .  S
C1834      C1835   1.419       .  A
C1834      H1839   1.078       .  S
C1835      C1836   1.424       .  A
C1836      O1840   1.371       .  S
C1837      C1842   1.411       .  A
C1837      C1846   1.401       .  A
O1838      H1854   0.993       .  S
O1840      H1851   0.992       .  S
C1842      C1843   1.410       .  A
C1842      O1847   1.371       .  S
C1843      C1844   1.407       .  A
C1843      H1848   1.083       .  S
C1844      C1845   1.414   1_565  A
C1845      C1846   1.404   1_545  A
C1845      O1849   1.373       .  S
C1846      H1850   1.084   1_565  S
O1847      H1852   0.991       .  S
O1849      H1853   0.991       .  S
C1855      C1856   1.401       .  A
C1855      C1860   1.411       .  A
C1855      H1865   1.083       .  S
C1856      C1861   1.486       .  S
C1856      C1857   1.401       .  A
C1857      C1858   1.398       .  A
C1857      O1862   1.372       .  S
C1858      C1859   1.419       .  A
C1858      H1863   1.081       .  S
C1859      C1860   1.421       .  A
C1860      O1864   1.373       .  S
C1861      C1866   1.406       .  A
C1861      C1870   1.403       .  A
O1862      H1878   0.992       .  S
O1864      H1875   0.992       .  S
C1866      C1867   1.403       .  A
C1866      O1871   1.371       .  S
C1867      C1868   1.409       .  A
C1867      H1872   1.083   1_455  S
C1868      C1869   1.416       .  A
C1869      C1870   1.405       .  A
C1869      O1873   1.372   1_565  S
C1870      H1874   1.084       .  S
O1871      H1876   0.992       .  S
O1873      H1877   0.991       .  S
C1879      C1880   1.393       .  A
C1879      C1884   1.397       .  A
C1879      H1889   1.084       .  S
C1880      C1885   1.479       .  S
C1880      C1881   1.404       .  A
C1881      C1882   1.405       .  A
C1881      O1886   1.371       .  S
C1882      C1883   1.417       .  A
C1882      H1887   1.079       .  S
C1883      C1884   1.427       .  A
C1884      O1888   1.371       .  S
C1885      C1890   1.407       .  A
C1885      C1894   1.400       .  A
O1886      H1902   0.992       .  S
O1888      H1899   0.992       .  S
C1890      C1891   1.401       .  A
C1890      O1895   1.372       .  S
C1891      C1892   1.408       .  A
C1891      H1896   1.083       .  S
C1892      C1893   1.415       .  A
C1893      C1894   1.400       .  A
C1893      O1897   1.372       .  S
C1894      H1898   1.084       .  S
O1895      H1900   0.992       .  S
O1897      H1901   0.992       .  S
C1903      C1904   1.413       .  A
C1903      C1908   1.413       .  A
C1903      H1913   1.080       .  S
C1904      C1909   1.519       .  S
C1904      C1905   1.418       .  A
C1905      C1906   1.394       .  A
C1905      O1910   1.370       .  S
C1906      C1907   1.412       .  A
C1906      H1911   1.084       .  S
C1907      C1908   1.421       .  A
C1908      O1912   1.373       .  S
C1909      C1914   1.421       .  A
C1909      C1918   1.410       .  A
O1910      H1926   0.993       .  S
O1912      H1923   0.993       .  S
C1914      C1915   1.406       .  A
C1914      O1919   1.370       .  S
C1915      C1916   1.409       .  A
C1915      H1920   1.083   1_455  S
C1916      C1917   1.412       .  A
C1917      C1918   1.398       .  A
C1917      O1921   1.369       .  S
C1918      H1922   1.079       .  S
O1919      H1924   0.992       .  S
O1921      H1925   0.991       .  S
C1927      C1928   1.403       .  A
C1927      C1932   1.396       .  A
C1927      H1937   1.081       .  S
C1928      C1933   1.510       .  S
C1928      C1929   1.415       .  A
C1929      C1930   1.410       .  A
C1929      O1934   1.371       .  S
C1930      C1931   1.416       .  A
C1930      H1935   1.083       .  S
C1931      C1932   1.426       .  A
C1932      O1936   1.373       .  S
C1933      C1938   1.416       .  A
C1933      C1942   1.412       .  A
O1934      H1950   0.991       .  S
O1936      H1947   0.992       .  S
C1938      C1939   1.395       .  A
C1938      O1943   1.372       .  S
C1939      C1940   1.405       .  A
C1939      H1944   1.083       .  S
C1940      C1941   1.413       .  A
C1941      C1942   1.412       .  A
C1941      O1945   1.373   1_565  S
C1942      H1946   1.081       .  S
O1943      H1948   0.993       .  S
O1945      H1949   0.992   1_545  S
