geometry optimzed in LAMMPS
_audit_creation_date              2020-11-30 
_audit_creation_method            'lammps2cif' 
_symmetry_space_group_name_H-M    'P1' 
_symmetry_Int_Tables_number       1 
_symmetry_cell_setting            triclinic 
loop_ 
_symmetry_equiv_pos_as_xyz 
  x,y,z 
_cell_length_a                    41.20404227 
_cell_length_b                    41.132678831457376 
_cell_length_c                    43.938266827543615 
_cell_angle_alpha                 90.15671426205743 
_cell_angle_beta                  89.82816160463946 
_cell_angle_gamma                 120.09810883190006 
loop_ 
_atom_site_label 
_atom_site_type_symbol 
_atom_site_fract_x 
_atom_site_fract_y 
_atom_site_fract_z 
_atom_site_charge 
O1          O  0.46329927  0.06440926  0.30276254    -0.75200
O2          O  0.48082384  0.03579171  0.33789246    -0.54100
C3          C  0.46717941  0.05659168  0.33043435     0.78600
O4          O  0.39515360  0.92585874  0.19971572    -0.59800
O5          O  0.44134600  0.95851985  0.16486303    -0.52800
C6          C  0.40717939  0.93519392  0.17219113     0.70600
O7          O  0.39652838  0.92730528  0.30273004    -0.74300
O8          O  0.44319312  0.95753311  0.33756386    -0.54900
C9          C  0.40889094  0.93521565  0.33023069     0.76600
O10         O  0.46635418  0.06979899  0.19986331    -0.59500
O11         O  0.48274309  0.03954541  0.16474993    -0.52600
C12         C  0.47079236  0.06195621  0.17225907     0.73200
Zr13       Zr  0.47757068  0.05376281  0.25105935     2.54700
O14         O  0.42039014  0.05731051  0.25005433    -0.80000
O15         O  0.51646145  0.12184829  0.25376682    -0.93400
Zr16       Zr  0.42189369  0.94155725  0.25095482     2.64700
O17         O  0.36161309  0.93932443  0.25144813    -0.98400
O18         O  0.39403972  0.87351070  0.25148788    -0.80500
O19         O  0.44927560  0.99762848  0.28002439    -0.83800
O20         O  0.44902650  0.99775076  0.22207783    -2.18500
O21         O  0.59901293  0.07023826  0.19874354    -0.67200
O22         O  0.55354678  0.03774143  0.16372187    -0.51800
C23         C  0.58758057  0.06108057  0.17105831     0.71600
O24         O  0.53461764  0.93258149  0.30183952    -0.60100
O25         O  0.51582158  0.95970853  0.33750818    -0.52100
C26         C  0.53049627  0.93987898  0.32969890     0.73400
O27         O  0.52987112  0.92884966  0.19852964    -0.71500
O28         O  0.51526481  0.95979554  0.16319932    -0.50200
C29         C  0.52687460  0.93721093  0.17083375     0.74700
O30         O  0.60080358  0.06663678  0.30230651    -0.66800
O31         O  0.55435065  0.03573432  0.33724102    -0.54000
C32         C  0.58874370  0.05771029  0.32987978     0.73100
Zr33       Zr  0.57442116  0.05481280  0.25078430     2.77500
O34         O  0.63546094  0.05881341  0.24940306    -0.97600
O35         O  0.60409040  0.12297399  0.25253264    -0.78400
Zr36       Zr  0.51874141  0.94262608  0.25038533     2.70100
O37         O  0.57456854  0.93672957  0.24765903    -0.79700
O38         O  0.48082970  0.87440890  0.25285449    -0.98700
Zr39       Zr  0.49834134  0.99782313  0.30828981     2.21500
Zr40       Zr  0.49799155  0.99841288  0.19294401     2.11100
O41         O  0.54710441  0.99882407  0.22168940    -2.47400
O42         O  0.54746821  0.99856298  0.27949068    -0.79500
O43         O  0.52654359  0.05555251  0.22120140    -0.71600
O44         O  0.46977983  0.94067036  0.28023111    -2.32600
O45         O  0.52659772  0.05542499  0.28065633    -2.28800
O46         O  0.46970810  0.94102323  0.22084662    -0.73400
H47         H  0.43011373  0.99778431  0.20918390     0.78600
H48         H  0.45935028  0.91930129  0.29375402     0.79700
H49         H  0.56611979  0.99907243  0.20864805     0.81900
H50         H  0.53716747  0.07679197  0.29424472     0.79500
H51         H  0.39392491  0.86700154  0.27318225     0.42500
H52         H  0.49919256  0.86615272  0.25701948     0.41500
H53         H  0.59564139  0.96298367  0.24704200     0.41200
H54         H  0.63250143  0.03927148  0.23465055     0.39100
H55         H  0.63113961  0.13185429  0.25507481     0.42300
H56         H  0.50116638  0.13132978  0.24405891     0.37000
H57         H  0.40024313  0.03116457  0.24608651     0.43200
H58         H  0.36195053  0.95306544  0.27009440     0.39600
H59         H  0.65240416  0.08293042  0.23915010     0.44500
H60         H  0.53708430  0.12807394  0.23913756     0.43200
H61         H  0.36329704  0.95611603  0.23465931     0.43400
H62         H  0.46633208  0.86909178  0.27200244     0.43700
O63         O  0.07134328  0.59956075  0.30146193    -0.75200
O64         O  0.03940019  0.55441432  0.33683474    -0.54100
C65         C  0.06293327  0.58838221  0.32915571     0.78600
O66         O  0.92869065  0.52817882  0.19708295    -0.59800
O67         O  0.96235956  0.51598591  0.16230092    -0.52800
C68         C  0.93814794  0.52561990  0.16959343     0.70600
O69         O  0.92731556  0.53036928  0.29996592    -0.74300
O70         O  0.96083381  0.51903814  0.33545965    -0.54900
C71         C  0.93704038  0.52884316  0.32749608     0.76600
O72         O  0.07206807  0.59893727  0.19852431    -0.59500
O73         O  0.04166858  0.55353477  0.16293964    -0.52600
C74         C  0.06460265  0.58759830  0.17077241     0.73200
Zr75       Zr  0.05611710  0.57422715  0.25007454     2.54700
O76         O  0.05949450  0.63499610  0.24896215    -0.80000
O77         O  0.12424285  0.60434529  0.24909347    -0.93400
Zr78       Zr  0.94410654  0.51995827  0.24904380     2.64700
O79         O  0.94307969  0.57862529  0.24876072    -0.98400
O80         O  0.87592877  0.48242518  0.24895423    -0.80500
O81         O  0.99973054  0.54829465  0.27860427    -0.83800
O82         O  0.00064849  0.54817463  0.22069590    -2.18500
O83         O  0.07113725  0.46890807  0.20030324    -0.67200
O84         O  0.04031708  0.48277102  0.16450956    -0.51800
C85         C  0.06324963  0.47194855  0.17255812     0.71600
O86         O  0.92832191  0.39710471  0.30065122    -0.60100
O87         O  0.95752796  0.44347831  0.33606279    -0.52100
C88         C  0.93572098  0.40913818  0.32828476     0.73400
O89         O  0.92463474  0.39811671  0.19711810    -0.71500
O90         O  0.96191541  0.44326916  0.16283581    -0.50200
C91         C  0.93603871  0.40999549  0.16983923     0.74700
O92         O  0.06730567  0.46650415  0.30372961    -0.66800
O93         O  0.03520929  0.48082484  0.33821010    -0.54000
C94         C  0.05806165  0.46934393  0.33127710     0.73100
Zr95       Zr  0.05349534  0.47644335  0.25154780     2.77500
O96         O  0.04826880  0.41482141  0.25336589    -0.97600
O97         O  0.12168339  0.50719103  0.25192002    -0.78400
Zr98       Zr  0.94189981  0.42270575  0.24922124     2.70100
O99         O  0.93776896  0.36161270  0.24669944    -0.79700
O100        O  0.87395141  0.39370609  0.25206730    -0.98700
Zr101      Zr  0.99846116  0.49917162  0.30770058     2.21500
Zr102      Zr  0.00038931  0.49879639  0.19238181     2.11100
O103        O  0.99855873  0.44896510  0.22123857    -2.47400
O104        O  0.99695500  0.44911404  0.27950538    -0.79500
O105        O  0.05671670  0.52583145  0.22132983    -0.71600
O106        O  0.94184844  0.47102451  0.27893129    -2.32600
O107        O  0.05602474  0.52645965  0.28025005    -2.28800
O108        O  0.94247251  0.47089486  0.21933318    -0.73400
H109        H  0.00119397  0.56720303  0.20753389     0.78600
H110        H  0.92027156  0.46061642  0.29225073     0.79700
H111        H  0.99834940  0.42987690  0.20825585     0.81900
H112        H  0.07733142  0.53690090  0.29378846     0.79500
H113        H  0.86932748  0.46811960  0.26825136     0.42500
H114        H  0.86858335  0.39667633  0.27355359     0.41500
H115        H  0.91050946  0.34332323  0.24625892     0.41200
H116        H  0.04263168  0.40515353  0.23224502     0.39100
H117        H  0.12991737  0.53041902  0.26393473     0.42300
H118        H  0.12957516  0.58975509  0.23394656     0.37000
H119        H  0.03766567  0.63130894  0.26117074     0.43200
H120        H  0.96194169  0.59437332  0.23328391     0.39600
H121        H  0.07413638  0.42010609  0.25715967     0.44500
H122        H  0.13098996  0.59794699  0.26889839     0.43200
H123        H  0.91863893  0.57209117  0.23955249     0.43400
H124        H  0.86826990  0.41093100  0.24060290     0.43700
O125        O  0.39918728  0.46733245  0.30272107    -0.75200
O126        O  0.44452864  0.48027080  0.33805993    -0.54100
C127        C  0.41069191  0.46977459  0.33030222     0.78600
O128        O  0.47201151  0.39703182  0.20092167    -0.59800
O129        O  0.48740030  0.44304958  0.16552361    -0.52800
C130        C  0.47615477  0.40891979  0.17331457     0.70600
O131        O  0.46987605  0.39863637  0.30389777    -0.74300
O132        O  0.48745959  0.44567690  0.33861792    -0.54900
C133        C  0.47459129  0.41118113  0.33141618     0.76600
O134        O  0.39867164  0.46831642  0.19950517    -0.59500
O135        O  0.44490596  0.48184181  0.16488262    -0.52600
C136        C  0.41085600  0.47158127  0.17194543     0.73200
Zr137      Zr  0.42433423  0.47751798  0.25113214     2.54700
O138        O  0.36494704  0.41847953  0.25055245    -0.80000
O139        O  0.39297368  0.51434986  0.25136788    -0.93400
Zr140      Zr  0.48300897  0.42385572  0.25206548     2.64700
O141        O  0.43073187  0.35948254  0.25407805    -0.98400
O142        O  0.52785395  0.40175716  0.25225502    -0.80500
O143        O  0.45260590  0.45001200  0.28040856    -0.83800
O144        O  0.45270881  0.44936546  0.22272796    -2.18500
O145        O  0.52708657  0.59974575  0.19939828    -0.67200
O146        O  0.51535750  0.55434690  0.16431607    -0.51800
C147        C  0.52431146  0.58808393  0.17177316     0.71600
O148        O  0.60282231  0.54074764  0.30322865    -0.60100
O149        O  0.55661975  0.52022917  0.33875239    -0.52100
C150        C  0.59128078  0.53675250  0.33106166     0.73400
O151        O  0.60233278  0.53153237  0.19964138    -0.71500
O152        O  0.55652439  0.51660146  0.16462079    -0.50200
C153        C  0.59068451  0.52837041  0.17195701     0.74700
O154        O  0.53504779  0.60198376  0.30247584    -0.66800
O155        O  0.51692463  0.55532693  0.33773881    -0.54000
C156        C  0.53074179  0.58974802  0.32997876     0.73100
Zr157      Zr  0.51912549  0.57525059  0.25120308     2.77500
O158        O  0.57272299  0.63888301  0.25109566    -0.97600
O159        O  0.47706632  0.60069264  0.25294815    -0.78400
Zr160      Zr  0.57758085  0.52168803  0.25163597     2.70100
O161        O  0.63986541  0.57698606  0.24889584    -0.79700
O162        O  0.60653288  0.48288533  0.25658855    -0.98700
Zr163      Zr  0.50087446  0.49974649  0.30891754     2.21500
Zr164      Zr  0.50092115  0.49901353  0.19378462     2.11100
O165        O  0.54927402  0.54917839  0.22240964    -2.47400
O166        O  0.54890650  0.54926482  0.28011387    -0.79500
O167        O  0.47130905  0.52672327  0.22147081    -0.71600
O168        O  0.53107295  0.47231485  0.28157790    -2.32600
O169        O  0.47108120  0.52708372  0.28101854    -2.28800
O170        O  0.53081067  0.47203522  0.22199178    -0.73400
H171        H  0.43401421  0.43015446  0.20975210     0.78600
H172        H  0.54236057  0.46240017  0.29519693     0.79700
H173        H  0.56783592  0.56835769  0.20933975     0.81900
H174        H  0.46010688  0.53749176  0.29457246     0.79500
H175        H  0.52706750  0.39286997  0.27330751     0.42500
H176        H  0.61809118  0.48442092  0.23646639     0.41500
H177        H  0.63612312  0.59793199  0.25545526     0.41200
H178        H  0.59147669  0.63757664  0.23779495     0.39100
H179        H  0.47740816  0.60807428  0.27445948     0.42300
H180        H  0.39633568  0.52451855  0.23047529     0.37000
H181        H  0.36754903  0.40309484  0.26660930     0.43200
H182        H  0.41356926  0.35772379  0.23760744     0.39600
H183        H  0.56439034  0.65399453  0.23950470     0.44500
H184        H  0.40907519  0.53655583  0.26409989     0.43200
H185        H  0.44132160  0.34384202  0.24700358     0.43400
H186        H  0.62807363  0.49729576  0.27039197     0.43700
O187        O  0.78824271  0.46946503  0.99378053    -0.75200
O188        O  0.85016632  0.51455137  0.99680664    -0.54100
C189        C  0.82463479  0.48118311  0.49407253     0.78600
O190        O  0.73288465  0.57580979  0.41573292    -0.59800
O191        O  0.69483300  0.57623231  0.45309554    -0.52800
C192        C  0.70343912  0.57616460  0.42480899     0.70600
O193        O  0.83333631  0.56187575  0.41503570    -0.74300
O194        O  0.87626276  0.56815369  0.45074461    -0.54900
C195        C  0.86292688  0.56148976  0.42356222     0.76600
O196        O  0.68061781  0.47055523  0.00800481    -0.59500
O197        O  0.66508803  0.51592236  0.50324228    -0.52600
C198        C  0.65725715  0.48166759  0.50723666     0.73200
Zr199      Zr  0.74763650  0.49589961  0.00111981     2.54700
O200        O  0.72052112  0.45215302  0.45782518    -0.80000
O201        O  0.73170625  0.45159051  0.04290253    -0.93400
Zr202      Zr  0.78691859  0.57513940  0.43642614     2.64700
O203        O  0.76255472  0.53045017  0.39439042    -0.98400
O204        O  0.81802742  0.62887111  0.40239699    -0.80500
O205        O  0.79867844  0.53525189  0.46726137    -0.83800
O206        O  0.73519351  0.53480318  0.46773390    -2.18500
O207        O  0.73289861  0.56690640  0.08522772    -0.67200
O208        O  0.69421263  0.56901859  0.04952295    -0.51800
C209        C  0.70246816  0.56567582  0.07720122     0.71600
O210        O  0.89720352  0.68125755  0.49793074    -0.60100
O211        O  0.90951177  0.63288195  0.49621137    -0.52100
C212        C  0.91929651  0.66753024  0.99738890     0.73400
O213        O  0.78643085  0.68168394  0.49970665    -0.71500
O214        O  0.72546220  0.63387524  0.50317192    -0.50200
C215        C  0.74934809  0.66788652  0.00148838     0.74700
O216        O  0.84091839  0.56995294  0.08355944    -0.66800
O217        O  0.87882372  0.56906090  0.04621972    -0.54000
C218        C  0.86887463  0.56693511  0.07429903     0.73100
Zr219      Zr  0.79062248  0.57717955  0.06288959     2.77500
O220        O  0.81995581  0.63486261  0.09278143    -0.97600
O221        O  0.77258423  0.53951314  0.10907509    -0.78400
Zr222      Zr  0.82847569  0.65486136  0.49924169     2.70100
O223        O  0.85110460  0.70060129  0.04018030    -0.79700
O224        O  0.85342102  0.70271662  0.45970435    -0.98700
Zr225      Zr  0.85058858  0.57439130  0.49873261     2.21500
Zr226      Zr  0.72500059  0.57498011  0.50067728     2.11100
O227        O  0.77670842  0.61559385  0.03199596    -2.47400
O228        O  0.84172522  0.61612471  0.03109466    -0.79500
O229        O  0.73775247  0.53620265  0.03312945    -0.71600
O230        O  0.83951609  0.61484611  0.46676799    -2.32600
O231        O  0.79954866  0.53483784  0.03229227    -2.28800
O232        O  0.77596557  0.61525306  0.46813082    -0.73400
H233        H  0.71324344  0.51926838  0.45557440     0.78600
H234        H  0.86079357  0.62955059  0.45366180     0.79700
H235        H  0.77044481  0.63075498  0.04484947     0.81900
H236        H  0.80519484  0.51882523  0.04452369     0.79500
H237        H  0.83187608  0.62196692  0.38774558     0.42500
H238        H  0.83108168  0.70106472  0.44981497     0.41500
H239        H  0.87042062  0.72411189  0.03043261     0.41200
H240        H  0.79928139  0.63391156  0.10500392     0.39100
H241        H  0.76821307  0.51462415  0.10238604     0.42300
H242        H  0.70775240  0.42929278  0.03676678     0.37000
H243        H  0.71643405  0.42799903  0.46606388     0.43200
H244        H  0.73664980  0.51168015  0.40049891     0.39600
H245        H  0.83574775  0.63119888  0.10775312     0.44500
H246        H  0.72480287  0.46283358  0.05988705     0.43200
H247        H  0.75953061  0.54426436  0.37725767     0.43400
H248        H  0.86500254  0.72683905  0.47095858     0.43700
O249        O  0.67900136  0.20818002  0.99378855    -0.75200
O250        O  0.66347080  0.14674741  0.99869428    -0.54100
C251        C  0.65579812  0.17541419  0.49328718     0.78600
O252        O  0.83915367  0.26592269  0.41256138    -0.59800
O253        O  0.87706820  0.30557118  0.44978307    -0.52800
C254        C  0.86735440  0.29689413  0.42181284     0.70600
O255        O  0.73049775  0.15625144  0.41413132    -0.74300
O256        O  0.69175878  0.11952316  0.45222596    -0.54900
C257        C  0.69994014  0.12802159  0.42403596     0.76600
O258        O  0.78793559  0.31761545  0.99037910    -0.59500
O259        O  0.85012783  0.33486146  0.49471015    -0.52600
C260        C  0.82366957  0.34276973  0.49284753     0.73200
Zr261      Zr  0.74682906  0.25006917  0.99454810     2.54700
O262        O  0.72392172  0.27727868  0.45768570    -0.80000
O263        O  0.72376138  0.27716341  0.03224290    -0.93400
Zr264      Zr  0.78728106  0.20944998  0.43449576     2.64700
O265        O  0.76142485  0.22985362  0.39388784    -0.98400
O266        O  0.81405746  0.18458829  0.39814773    -0.80500
O267        O  0.73544868  0.19914671  0.46491708    -0.83800
O268        O  0.79814192  0.26191681  0.46444160    -2.18500
O269        O  0.83185530  0.27712431  0.08091218    -0.67200
O270        O  0.87575402  0.31083698  0.04478512    -0.51800
C271        C  0.86210364  0.30621865  0.07179646     0.71600
O272        O  0.78356112  0.10372740  0.50189103    -0.60100
O273        O  0.72255448  0.09042716  0.50274011    -0.52100
C274        C  0.74811088  0.07989691  0.00514047     0.73400
O275        O  0.89561971  0.21542980  0.50075210    -0.71500
O276        O  0.90853704  0.27641399  0.50031234    -0.50200
C277        C  0.91819952  0.25096718  0.00413543     0.74700
O278        O  0.72991508  0.16523568  0.08467054    -0.66800
O279        O  0.69286782  0.12309542  0.04876773    -0.54000
C280        C  0.70044403  0.13489715  0.07655418     0.73100
Zr281      Zr  0.78581991  0.21548949  0.06193269     2.77500
O282        O  0.81697638  0.19368169  0.09643225    -0.97600
O283        O  0.76322644  0.23529998  0.10540427    -0.78400
Zr284      Zr  0.82659783  0.17270184  0.49970548     2.70100
O285        O  0.84929962  0.15061482  0.04498679    -0.79700
O286        O  0.85139915  0.15116817  0.45888356    -0.98700
Zr287      Zr  0.72359785  0.14957163  0.49891072     2.21500
Zr288      Zr  0.84912692  0.27524096  0.49764038     2.11100
O289        O  0.83821253  0.22558656  0.03279345    -2.47400
O290        O  0.77440951  0.16180679  0.03333072    -0.79500
O291        O  0.79685475  0.26501930  0.02863358    -0.71600
O292        O  0.77499603  0.15880219  0.46720809    -2.32600
O293        O  0.73447946  0.20172567  0.02957157    -2.28800
O294        O  0.83902471  0.22320135  0.46644476    -0.73400
H295        H  0.80382759  0.28296107  0.45138094     0.78600
H296        H  0.76838214  0.13656233  0.45529608     0.79700
H297        H  0.85941871  0.23305494  0.04611304     0.81900
H298        H  0.71268895  0.19647336  0.04153915     0.79500
H299        H  0.80504908  0.15850338  0.40493835     0.42500
H300        H  0.87074867  0.14727011  0.46876374     0.41500
H301        H  0.86106361  0.13738771  0.03513322     0.41200
H302        H  0.82305359  0.21008625  0.11454638     0.39100
H303        H  0.74773476  0.24494987  0.09632568     0.42300
H304        H  0.70810404  0.25622814  0.04625762     0.37000
H305        H  0.72929454  0.26916048  0.43799645     0.43200
H306        H  0.77238761  0.25723502  0.39699341     0.39600
H307        H  0.79688506  0.16872957  0.10338068     0.44500
H308        H  0.70560728  0.28169067  0.02100332     0.43200
H309        H  0.77346179  0.22763870  0.37506926     0.43400
H310        H  0.83090395  0.12553567  0.45388594     0.43700
O311        O  0.31868375  0.78872080  0.99644806    -0.75200
O312        O  0.33551416  0.85066911  0.99940731    -0.54100
C313        C  0.34326104  0.82223518  0.49676208     0.78600
O314        O  0.16172496  0.72761588  0.41760882    -0.59800
O315        O  0.12276393  0.68960925  0.45468372    -0.52800
C316        C  0.13321734  0.69695393  0.42672558     0.70600
O317        O  0.26813802  0.83585848  0.41557472    -0.74300
O318        O  0.30778236  0.87309040  0.45298797    -0.54900
C319        C  0.29910318  0.86365775  0.42497050     0.76600
O320        O  0.20925474  0.67928531  0.00319049    -0.59500
O321        O  0.14806968  0.66360172  0.50173457    -0.52600
C322        C  0.17413694  0.65522362  0.50389724     0.73200
Zr323      Zr  0.25141214  0.74720768  0.00230832     2.54700
O324        O  0.27321544  0.71768502  0.46613724    -0.80000
O325        O  0.27621682  0.72779365  0.04440659    -0.93400
Zr326      Zr  0.21238176  0.78504671  0.43825116     2.64700
O327        O  0.23603230  0.76418122  0.39608051    -0.98400
O328        O  0.18391845  0.81009849  0.40407796    -0.80500
O329        O  0.26358478  0.79611013  0.46964862    -0.83800
O330        O  0.20143845  0.73423108  0.47017927    -2.18500
O331        O  0.16136589  0.73037847  0.08377352    -0.67200
O332        O  0.12200428  0.69185011  0.04721129    -0.51800
C333        C  0.13284704  0.69937699  0.07501769     0.71600
O334        O  0.21745694  0.89571445  0.49870796    -0.60100
O335        O  0.27802258  0.90771562  0.49789180    -0.52100
C336        C  0.25244646  0.91874059  0.99630112     0.73400
O337        O  0.10444657  0.78394756  0.49610209    -0.71500
O338        O  0.09119734  0.72290328  0.49764731    -0.50200
C339        C  0.08121317  0.74817648  0.99587096     0.74700
O340        O  0.26627787  0.84135460  0.08549194    -0.66800
O341        O  0.30664979  0.87767695  0.04807315    -0.54000
C342        C  0.29748006  0.86908447  0.07620911     0.73100
Zr343      Zr  0.21074522  0.78918681  0.06328098     2.77500
O344        O  0.18054689  0.81537653  0.09457417    -0.97600
O345        O  0.23173007  0.77100162  0.10855722    -0.78400
Zr346      Zr  0.17330812  0.82677882  0.50013213     2.70100
O347        O  0.14940083  0.85309515  0.03589504    -0.79700
O348        O  0.15173926  0.85412187  0.46167270    -0.98700
Zr349      Zr  0.27583078  0.84803251  0.50096625     2.21500
Zr350      Zr  0.14996707  0.72362527  0.50163462     2.11100
O351        O  0.15955785  0.77611780  0.03122961    -2.47400
O352        O  0.22407824  0.84026852  0.03088568    -0.79500
O353        O  0.20027670  0.73658535  0.03363144    -0.71600
O354        O  0.22490475  0.83752721  0.46856361    -2.32600
O355        O  0.26308575  0.79887271  0.03356654    -2.28800
O356        O  0.16066055  0.77426363  0.46883080    -0.73400
H357        H  0.19587140  0.71236422  0.45815503     0.78600
H358        H  0.23182421  0.85885151  0.45545826     0.79700
H359        H  0.13757133  0.76965931  0.04339521     0.81900
H360        H  0.28441937  0.80497018  0.04635164     0.79500
H361        H  0.19633395  0.81243424  0.38422797     0.42500
H362        H  0.13231141  0.83246755  0.45004124     0.41500
H363        H  0.12499447  0.84833791  0.02780887     0.41200
H364        H  0.18923790  0.81508679  0.11550157     0.39100
H365        H  0.23079079  0.74722905  0.10286713     0.42300
H366        H  0.25476251  0.70379012  0.05158274     0.37000
H367        H  0.25886530  0.71537435  0.44743358     0.43200
H368        H  0.22867395  0.73787909  0.40097752     0.39600
H369        H  0.19337241  0.84232142  0.08901557     0.44500
H370        H  0.28047245  0.74582299  0.06099748     0.43200
H371        H  0.22024352  0.76224695  0.37844747     0.43400
H372        H  0.13767801  0.86375903  0.47328751     0.43700
O373        O  0.56951958  0.83597879  0.41494858    -0.75200
O374        O  0.57385756  0.87783299  0.45085607    -0.54100
C375        C  0.57008225  0.86621375  0.42311695     0.78600
O376        O  0.47078410  0.67994252  0.00634751    -0.59800
O377        O  0.51716143  0.66422118  0.50261639    -0.52800
C378        C  0.48295406  0.65636202  0.50648145     0.70600
O379        O  0.47012773  0.78879745  0.99372566    -0.74300
O380        O  0.51546108  0.85062637  0.99716174    -0.54900
C381        C  0.48254710  0.82402770  0.49524753     0.76600
O382        O  0.56873815  0.72763045  0.41550200    -0.59500
O383        O  0.57105528  0.69068535  0.45320301    -0.52600
C384        C  0.56737023  0.69757684  0.42529104     0.73200
Zr385      Zr  0.57652660  0.78581301  0.43642388     2.54700
O386        O  0.53349076  0.76434138  0.39347053    -0.80000
O387        O  0.63002955  0.81113071  0.40191526    -0.93400
Zr388      Zr  0.49598334  0.74715973  0.99798131     2.64700
O389        O  0.44965637  0.71752003  0.46203252    -0.98400
O390        O  0.44586574  0.72805450  0.03527986    -0.80500
O391        O  0.53657041  0.79792651  0.46747011    -0.83800
O392        O  0.53601232  0.73491229  0.46817544    -2.18500
O393        O  0.68276804  0.78514332  0.49813717    -0.67200
O394        O  0.63493092  0.72412287  0.50132924    -0.51800
C395        C  0.66736419  0.74790378  0.99989828     0.71600
O396        O  0.57257151  0.84099461  0.08250578    -0.60100
O397        O  0.56921414  0.87788758  0.04568447    -0.52100
C398        C  0.56904036  0.86887275  0.07376043     0.73400
O399        O  0.56455676  0.72873553  0.08321264    -0.71500
O400        O  0.56666138  0.69038075  0.04691356    -0.50200
C401        C  0.56245270  0.69781164  0.07466202     0.74700
O402        O  0.68233106  0.89614456  0.50013801    -0.66800
O403        O  0.63436325  0.90904000  0.50133070    -0.54000
C404        C  0.66830602  0.91798800  0.00225660     0.73100
Zr405      Zr  0.65604849  0.82723614  0.49881369     2.77500
O406        O  0.69912937  0.84743687  0.04053091    -0.97600
O407        O  0.70470149  0.85306712  0.45986601    -0.78400
Zr408      Zr  0.57494034  0.78756760  0.06178007     2.70100
O409        O  0.62932964  0.81170537  0.09504880    -0.79700
O410        O  0.53177403  0.77000695  0.10468810    -0.98700
Zr411      Zr  0.57592394  0.85006972  0.49910999     2.21500
Zr412      Zr  0.57611609  0.72409937  0.50021818     2.11100
O413        O  0.61445715  0.77479173  0.03111407    -2.47400
O414        O  0.61468695  0.83903268  0.03045823    -0.79500
O415        O  0.61680045  0.77461108  0.46736643    -0.71600
O416        O  0.53431020  0.79809860  0.03048752    -2.32600
O417        O  0.61628474  0.83868908  0.46681539    -2.28800
O418        O  0.53447596  0.73582238  0.03087291    -0.73400
H419        H  0.51962495  0.71289366  0.45628654     0.78600
H420        H  0.51838707  0.80383467  0.04284536     0.79700
H421        H  0.62912044  0.76802976  0.04396417     0.81900
H422        H  0.63124761  0.86014701  0.45395374     0.79500
H423        H  0.42352571  0.70728563  0.02530893     0.42500
H424        H  0.51093894  0.74454048  0.09966714     0.41500
H425        H  0.61865434  0.80448087  0.11578582     0.41200
H426        H  0.69291029  0.82440898  0.05211053     0.39100
H427        H  0.69172996  0.85414969  0.44130286     0.42300
H428        H  0.63456336  0.83639506  0.39639400     0.37000
H429        H  0.50892769  0.74601001  0.40239837     0.43200
H430        H  0.42613286  0.71193705  0.47255324     0.39600
H431        H  0.72340572  0.85464175  0.03058096     0.44500
H432        H  0.62015841  0.79607848  0.38307873     0.43200
H433        H  0.45439134  0.73779493  0.44749464     0.43400
H434        H  0.54491366  0.76620936  0.12194312     0.43700
O435        O  0.21034288  0.52930708  0.99720745    -0.75200
O436        O  0.14883517  0.48336721  0.00119733    -0.54100
C437        C  0.17682853  0.51932677  0.49701800     0.78600
O438        O  0.26953262  0.42830732  0.41645227    -0.59800
O439        O  0.30835616  0.42871446  0.45341255    -0.52800
C440        C  0.30026831  0.43060009  0.42545059     0.70600
O441        O  0.16302610  0.43240591  0.41628697    -0.74300
O442        O  0.12146013  0.42738538  0.45276465    -0.54900
C443        C  0.13290185  0.43175702  0.42502425     0.76600
O444        O  0.31882149  0.52816932  0.00192480    -0.59500
O445        O  0.33647216  0.48381206  0.50063452    -0.52600
C446        C  0.34456937  0.51826950  0.50297246     0.73200
Zr447      Zr  0.25134358  0.50226757  0.99796147     2.54700
O448        O  0.27895517  0.54681360  0.45537050    -0.80000
O449        O  0.27498422  0.55095221  0.03704067    -0.93400
Zr450      Zr  0.21192411  0.42222735  0.43680073     2.64700
O451        O  0.22825478  0.45746122  0.38928783    -0.98400
O452        O  0.18272321  0.36536593  0.40594317    -0.80500
O453        O  0.20155363  0.46410017  0.46685415    -0.83800
O454        O  0.26429403  0.46430742  0.46682588    -2.18500
O455        O  0.27163553  0.43529739  0.08514712    -0.67200
O456        O  0.30827027  0.43108457  0.04815235    -0.51800
C457        C  0.30132214  0.43539739  0.07604704     0.71600
O458        O  0.10365257  0.31934794  0.50290161    -0.60100
O459        O  0.09128157  0.36770402  0.50415993    -0.52100
C460        C  0.08006253  0.33119189  0.00735721     0.73400
O461        O  0.21569483  0.31942062  0.49996491    -0.71500
O462        O  0.27652075  0.36764013  0.50290864    -0.50200
C463        C  0.24884524  0.32942792  0.00458949     0.74700
O464        O  0.16395846  0.43507538  0.08474061    -0.66800
O465        O  0.12281758  0.43043135  0.04825816    -0.54000
C466        C  0.13438283  0.43524343  0.07585208     0.73100
Zr467      Zr  0.21349848  0.42643298  0.06411770     2.77500
O468        O  0.18618973  0.37303432  0.09868509    -0.97600
O469        O  0.23482438  0.46880789  0.10768587    -0.78400
Zr470      Zr  0.17274102  0.34534195  0.50126712     2.70100
O471        O  0.14941687  0.29864525  0.04574121    -0.79700
O472        O  0.14630023  0.29657915  0.46239943    -0.98700
Zr473      Zr  0.15075292  0.42582697  0.49995612     2.21500
Zr474      Zr  0.27597911  0.42595039  0.50048937     2.11100
O475        O  0.22436801  0.38487139  0.03434302    -2.47400
O476        O  0.16059697  0.38523302  0.03471325    -0.79500
O477        O  0.26397216  0.46499352  0.03139379    -0.71600
O478        O  0.16018901  0.38370654  0.46843312    -2.32600
O479        O  0.20198296  0.46566994  0.03193386    -2.28800
O480        O  0.22452879  0.38381367  0.46892435    -0.73400
H481        H  0.28586991  0.48001150  0.45432016     0.78600
H482        H  0.13830200  0.36838884  0.45613691     0.79700
H483        H  0.23132895  0.37063494  0.04753240     0.81900
H484        H  0.19692071  0.48239370  0.04383254     0.79500
H485        H  0.20364827  0.36133114  0.40003365     0.42500
H486        H  0.16729701  0.30297415  0.44812999     0.41500
H487        H  0.17205324  0.30563498  0.05809587     0.41200
H488        H  0.17967778  0.38248341  0.11711586     0.39100
H489        H  0.24547953  0.49418765  0.09868458     0.42300
H490        H  0.29086036  0.54514451  0.05023422     0.37000
H491        H  0.29019325  0.57218870  0.46453972     0.43200
H492        H  0.25426359  0.47838813  0.39213801     0.39600
H493        H  0.16166654  0.35509372  0.08955096     0.44500
H494        H  0.25293726  0.54514140  0.04986883     0.43200
H495        H  0.23023987  0.44080271  0.37400007     0.43400
H496        H  0.14231718  0.27355060  0.47283285     0.43700
O497        O  0.43215251  0.16380940  0.41629084    -0.75200
O498        O  0.42896452  0.12277927  0.45222789    -0.54100
C499        C  0.43244688  0.13406777  0.42446479     0.78600
O500        O  0.52940392  0.31825628  0.50929198    -0.59800
O501        O  0.48505925  0.33551782  0.50374659    -0.52800
C502        C  0.51900169  0.34294074  0.50823170     0.70600
O503        O  0.52927903  0.20974036  0.99743051    -0.74300
O504        O  0.48324487  0.14795249  0.99744131    -0.54900
C505        C  0.51722009  0.17417366  0.49643667     0.76600
O506        O  0.42853323  0.26990200  0.41639170    -0.59500
O507        O  0.43057508  0.30865183  0.45451555    -0.52600
C508        C  0.43124720  0.30057649  0.42627155     0.73200
Zr509      Zr  0.42495723  0.21394700  0.43774129     2.54700
O510        O  0.47193124  0.23931044  0.39752650    -0.80000
O511        O  0.37377803  0.18703858  0.40115682    -0.93400
Zr512      Zr  0.50315087  0.25122167  0.00267197     2.64700
O513        O  0.54815129  0.27912462  0.46042353    -0.98400
O514        O  0.54525545  0.26658540  0.04586675    -0.80500
O515        O  0.46453241  0.20148975  0.46853482    -0.83800
O516        O  0.46566998  0.26482123  0.46939919    -2.18500
O517        O  0.31970268  0.21635183  0.49972498    -0.67200
O518        O  0.36793171  0.27727784  0.50238231    -0.51800
C519        C  0.33154811  0.25040519  0.00310266     0.71600
O520        O  0.42587129  0.15598373  0.08527694    -0.60100
O521        O  0.43105121  0.12143713  0.04671785    -0.52100
C522        C  0.43052376  0.12926608  0.07509636     0.73400
O523        O  0.43085956  0.26706041  0.08737835    -0.71500
O524        O  0.43184802  0.30692779  0.05080196    -0.50200
C525        C  0.43392204  0.29824966  0.07851189     0.74700
O526        O  0.31854665  0.10348023  0.49882553    -0.66800
O527        O  0.36675087  0.09103270  0.49871797    -0.54000
C528        C  0.33143458  0.08054565  0.99838533     0.73100
Zr529      Zr  0.34489574  0.17276808  0.50040932     2.77500
O530        O  0.30120512  0.15134119  0.04354268    -0.97600
O531        O  0.29694824  0.14919686  0.46107785    -0.78400
Zr532      Zr  0.42228474  0.20902277  0.06500545     2.70100
O533        O  0.36779229  0.18372641  0.09843010    -0.79700
O534        O  0.46459662  0.22445700  0.10815137    -0.98700
Zr535      Zr  0.42469152  0.15009548  0.50017400     2.21500
Zr536      Zr  0.42585694  0.27583379  0.50172756     2.11100
O537        O  0.38393268  0.22303161  0.03411677    -2.47400
O538        O  0.38347820  0.15815908  0.03245341    -0.79500
O539        O  0.38487272  0.22525340  0.46910813    -0.71600
O540        O  0.46352126  0.19938143  0.03341767    -2.32600
O541        O  0.38461519  0.16143467  0.46804488    -2.28800
O542        O  0.46340906  0.26175336  0.03505997    -0.73400
H543        H  0.48184429  0.28670709  0.45736603     0.78600
H544        H  0.47921772  0.19328249  0.04559852     0.79700
H545        H  0.36879954  0.22933198  0.04696020     0.81900
H546        H  0.36977726  0.14012187  0.45498745     0.79500
H547        H  0.57074141  0.28047305  0.03694177     0.42500
H548        H  0.48863087  0.24594271  0.10107131     0.41500
H549        H  0.37747487  0.18184585  0.11855326     0.41200
H550        H  0.27664959  0.13363190  0.03431740     0.39100
H551        H  0.30880305  0.16657961  0.44376304     0.42300
H552        H  0.38595809  0.19760688  0.38134298     0.37000
H553        H  0.49526015  0.24339085  0.40737670     0.43200
H554        H  0.57288572  0.28847004  0.47020693     0.39600
H555        H  0.30770874  0.13524905  0.05578988     0.44500
H556        H  0.35919885  0.19965879  0.40557224     0.43200
H557        H  0.54458948  0.25751348  0.44792469     0.43400
H558        H  0.45534442  0.23516910  0.12384175     0.43700
C559        C  0.26365005  0.30315816  0.00755845     0.00000
C560        C  0.26090013  0.28124110  0.48012616    -0.11900
C561        C  0.28090785  0.26167425  0.47931785     0.02200
C562        C  0.30481513  0.26472434  0.00560887    -0.00100
C563        C  0.31200951  0.29183919  0.02804079    -0.11800
C564        C  0.29143788  0.31039097  0.02949651     0.02100
H565        H  0.24283896  0.27865889  0.46126571     0.15100
H566        H  0.33431043  0.29898674  0.04437786     0.15100
C567        C  0.29920573  0.33669789  0.05403553     0.36700
C568        C  0.27702712  0.23877143  0.45312160     0.36600
N569        N  0.30511375  0.35734569  0.07396991    -0.43600
N570        N  0.27407151  0.22052780  0.43206244    -0.43600
C571        C  0.38417178  0.54812479  0.50644546     0.00000
C572        C  0.39055669  0.57171890  0.03170405    -0.11900
C573        C  0.42461335  0.60565432  0.03328994     0.02200
C574        C  0.45293168  0.61666691  0.50935302    -0.00100
C575        C  0.44504708  0.59228727  0.48450941    -0.11800
C576        C  0.41078807  0.55820847  0.48278942     0.02100
H577        H  0.36937024  0.56526342  0.04904346     0.15100
H578        H  0.46430567  0.60118953  0.46538578     0.15100
C579        C  0.40231069  0.53603749  0.45537492     0.36700
C580        C  0.43120102  0.63017305  0.05898770     0.36600
N581        N  0.39589835  0.51863713  0.43320864    -0.43600
N582        N  0.43651575  0.64959155  0.07974317    -0.43600
C583        C  0.26699990  0.95978387  0.99375184     0.00000
C584        C  0.25765635  0.97861296  0.01578498    -0.11900
C585        C  0.27630716  0.01823421  0.01665795     0.02200
C586        C  0.30516780  0.03945756  0.99548249    -0.00100
C587        C  0.31662332  0.02023052  0.47451190    -0.11800
C588        C  0.29828567  0.98101328  0.47372388     0.02100
H589        H  0.23708415  0.96246216  0.03314659     0.15100
H590        H  0.34026135  0.03615354  0.45937098     0.15100
C591        C  0.31063601  0.96377572  0.45137119     0.36700
C592        C  0.26672412  0.03627148  0.04037177     0.36600
N593        N  0.32086680  0.95068835  0.43308292    -0.43600
N594        N  0.25863397  0.05048863  0.05934133    -0.43600
C595        C  0.16400229  0.61556865  0.50339435     0.00000
C596        C  0.15951297  0.59811611  0.47501354    -0.11900
C597        C  0.16114965  0.56499187  0.47241594     0.02200
C598        C  0.16662095  0.54873326  0.49868414    -0.00100
C599        C  0.16851281  0.56483539  0.52724398    -0.11800
C600        C  0.16741530  0.59815396  0.52978152     0.02100
H601        H  0.15769998  0.61194102  0.45462113     0.15100
H602        H  0.17304010  0.55249582  0.54743539     0.15100
C603        C  0.16455266  0.61355128  0.05877088     0.36700
C604        C  0.16035361  0.55016131  0.44244954     0.36600
N605        N  0.16629899  0.62715805  0.08225011    -0.43600
N606        N  0.16001187  0.53883652  0.41824602    -0.43600
C607        C  0.45215270  0.83311530  0.49233721     0.00000
C608        C  0.42674069  0.81646413  0.46827015    -0.11900
C609        C  0.39248471  0.81582529  0.46807455     0.02200
C610        C  0.38272560  0.83157520  0.49255550    -0.00100
C611        C  0.40749326  0.84942317  0.01714951    -0.11800
C612        C  0.44150669  0.84922704  0.01734101     0.02100
H613        H  0.43294200  0.80230403  0.45023870     0.15100
H614        H  0.39911723  0.85903251  0.03709897     0.15100
C615        C  0.46378992  0.86086984  0.04466873     0.36700
C616        C  0.36725957  0.79789899  0.44284081     0.36600
N617        N  0.48113695  0.86967278  0.06687561    -0.43600
N618        N  0.34717026  0.78375013  0.42252375    -0.43600
C619        C  0.73383016  0.03878303  0.00768721     0.00000
C620        C  0.74193581  0.02082556  0.48319535    -0.11900
C621        C  0.72330255  0.98119907  0.48232059     0.02200
C622        C  0.69491548  0.95898352  0.00541893    -0.00100
C623        C  0.68831041  0.97794688  0.02903036    -0.11800
C624        C  0.70711953  0.01723239  0.03020833     0.02100
H625        H  0.76151657  0.03694331  0.46523394     0.15100
H626        H  0.66695178  0.96189776  0.04594019     0.15100
C627        C  0.69733466  0.03470276  0.05428185     0.36700
C628        C  0.73120273  0.96294982  0.45767454     0.36600
N629        N  0.68912457  0.04829097  0.07366552    -0.43600
N630        N  0.73760557  0.94821538  0.43801586    -0.43600
C631        C  0.95917790  0.26579452  0.00755072    -0.02700
C632        C  0.97836158  0.29406736  0.02926747    -0.11900
C633        C  0.01751843  0.31344357  0.03094888     0.02200
C634        C  0.03881944  0.30524924  0.01026923    -0.00100
C635        C  0.02056046  0.27865605  0.48422957    -0.11800
C636        C  0.98091681  0.25880154  0.48267368     0.02100
H637        H  0.96259091  0.30170168  0.04464849     0.15100
H638        H  0.03663809  0.27443446  0.46667302     0.15100
C639        C  0.96283212  0.23358337  0.45746085     0.36700
C640        C  0.03502827  0.34175930  0.05427213     0.36600
N641        N  0.94827956  0.21352264  0.43715418    -0.43600
N642        N  0.04837177  0.36403138  0.07334432    -0.43600
C643        C  0.61595589  0.16535266  0.49240898     0.00000
C644        C  0.60206444  0.17290677  0.46583291    -0.11900
C645        C  0.56771926  0.17228096  0.46607477     0.02200
C646        C  0.54679189  0.16415054  0.49326076    -0.00100
C647        C  0.56284177  0.16126522  0.02314585    -0.11800
C648        C  0.59656377  0.16063784  0.02359426     0.02100
H649        H  0.61899501  0.18120086  0.44529159     0.15100
H650        H  0.54989085  0.16207345  0.04444766     0.15100
C651        C  0.61304065  0.16092414  0.05262058     0.36700
C652        C  0.55517869  0.18187013  0.43862000     0.36600
N653        N  0.62626832  0.16129327  0.07590487    -0.43600
N654        N  0.54477573  0.18939401  0.41675471    -0.43600
C655        C  0.96039592  0.69386089  0.99450679     0.00000
C656        C  0.98018004  0.68418783  0.47226569    -0.11900
C657        C  0.01929870  0.70330078  0.47122104     0.02200
C658        C  0.04009453  0.73320696  0.99283973    -0.00100
C659        C  0.02086941  0.74416152  0.01322286    -0.11800
C660        C  0.98121944  0.72474163  0.01416825     0.02100
H661        H  0.96451209  0.66034926  0.45722672     0.15100
H662        H  0.03671416  0.76640310  0.02951208     0.15100
C663        C  0.96272241  0.73524821  0.03680934     0.36700
C664        C  0.03668701  0.69102990  0.44898460     0.36600
N665        N  0.94789403  0.74369135  0.05497400    -0.43600
N666        N  0.04952032  0.68058995  0.43065637    -0.43600
C667        C  0.69380504  0.73327801  0.00246043     0.00000
C668        C  0.68552527  0.70544280  0.02430921    -0.11900
C669        C  0.70543368  0.68626290  0.02561004     0.02200
C670        C  0.73423248  0.69402270  0.00429036    -0.00100
C671        C  0.74448697  0.72258490  0.48199941    -0.11800
C672        C  0.72493650  0.74257974  0.48092547     0.02100
H673        H  0.66266381  0.69804172  0.04022229     0.15100
H674        H  0.76440772  0.72656065  0.46417631     0.15100
C675        C  0.73276147  0.76867397  0.45633800     0.36700
C676        C  0.69536687  0.65850136  0.04925716     0.36600
N677        N  0.73936572  0.78968807  0.43661094    -0.43600
N678        N  0.68699308  0.63659821  0.06851478    -0.43600
C679        C  0.83397891  0.45104878  0.49106536     0.00000
C680        C  0.82086243  0.42775551  0.46530560    -0.11900
C681        C  0.82065228  0.39365223  0.46442521     0.02200
C682        C  0.83344573  0.38226984  0.48972912    -0.00100
C683        C  0.85041822  0.40687184  0.01196276    -0.11800
C684        C  0.85050661  0.44105969  0.01323561     0.02100
H685        H  0.80897748  0.43533132  0.44649583     0.15100
H686        H  0.86159092  0.39865452  0.03088061     0.15100
C687        C  0.86556116  0.46434944  0.03992259     0.36700
C688        C  0.80579683  0.36989368  0.43787333     0.36600
N689        N  0.87753192  0.48275039  0.06148063    -0.43600
N690        N  0.79411310  0.35067974  0.41669363    -0.43600
C691        C  0.54925170  0.38242960  0.51237105     0.00000
C692        C  0.55592588  0.40924484  0.48982326    -0.11900
C693        C  0.58994054  0.44370779  0.48918662     0.02200
C694        C  0.61770674  0.45152228  0.51129339    -0.00100
C695        C  0.60891443  0.42596906  0.03529434    -0.11800
C696        C  0.57517029  0.39176213  0.03634778     0.02100
H697        H  0.53593614  0.40217578  0.47146939     0.15100
H698        H  0.63026601  0.43188252  0.05227007     0.15100
C699        C  0.56974407  0.36564631  0.06045043     0.36700
C700        C  0.59729593  0.46892100  0.46408231     0.36600
N701        N  0.56532476  0.34452483  0.07958677    -0.43600
N702        N  0.60358687  0.48932346  0.44398619    -0.43600
C703        C  0.46581882  0.38090997  0.14877359     0.00000
C704        C  0.43206887  0.34655252  0.15136342    -0.11900
C705        C  0.42034139  0.31965516  0.12815722     0.02200
C706        C  0.44270493  0.32698220  0.10194364    -0.00100
C707        C  0.47627764  0.36130979  0.09921577    -0.11800
C708        C  0.48816172  0.38809758  0.12247398     0.02100
H709        H  0.41450260  0.34099777  0.17132813     0.15100
H710        H  0.49400005  0.36654939  0.07938406     0.15100
C711        C  0.52470401  0.42120748  0.11979455     0.36700
C712        C  0.38459018  0.28550646  0.13111412     0.36600
N713        N  0.55440192  0.44718259  0.11759461    -0.43600
N714        N  0.35573181  0.25835294  0.13338211    -0.43600
C715        C  0.43863485  0.32953966  0.40330335     0.00000
C716        C  0.46858051  0.36603222  0.40831536    -0.11900
C717        C  0.48127215  0.39297453  0.38517946     0.02200
C718        C  0.46315712  0.38374293  0.35654300    -0.00100
C719        C  0.43245243  0.34757809  0.35195254    -0.11800
C720        C  0.42023314  0.32049492  0.37488139     0.02100
H721        H  0.48348581  0.37289131  0.42981404     0.15100
H722        H  0.41782918  0.34037574  0.33031976     0.15100
C723        C  0.38848007  0.28383963  0.36859019     0.36700
C724        C  0.51455803  0.42875001  0.39081360     0.36600
N725        N  0.36293135  0.25469769  0.36304863    -0.43600
N726        N  0.54146132  0.45724520  0.39525285    -0.43600
C727        C  0.61886819  0.53943514  0.14704540     0.00000
C728        C  0.65624022  0.55185810  0.15505187    -0.11900
C729        C  0.68407270  0.56180449  0.13305333     0.02200
C730        C  0.67479114  0.55882655  0.10168202    -0.00100
C731        C  0.63769268  0.54754861  0.09359279    -0.11800
C732        C  0.60996037  0.53842435  0.11570434     0.02100
H733        H  0.66409863  0.55388817  0.17881637     0.15100
H734        H  0.63002998  0.54539798  0.06976844     0.15100
C735        C  0.57285581  0.52801740  0.10501980     0.36700
C736        C  0.72177248  0.57532413  0.14401425     0.36600
N737        N  0.54316754  0.51942896  0.09621023    -0.43600
N738        N  0.75171033  0.58605699  0.15332444    -0.43600
C739        C  0.67684191  0.57385766  0.40066353     0.00000
C740        C  0.64026190  0.56494134  0.40874984    -0.11900
C741        C  0.61208830  0.55427354  0.38669216     0.02200
C742        C  0.62023208  0.55191334  0.35559109    -0.00100
C743        C  0.65769764  0.56495627  0.34738272    -0.11800
C744        C  0.68589497  0.57655097  0.36921566     0.02100
H745        H  0.63313478  0.56491878  0.43252536     0.15100
H746        H  0.66526495  0.56570501  0.32362558     0.15100
C747        C  0.72374479  0.59139179  0.35804567     0.36700
C748        C  0.57547924  0.54633646  0.39693700     0.36600
N749        N  0.75380836  0.60344424  0.34846830    -0.43600
N750        N  0.54627107  0.54014854  0.40533725    -0.43600
C751        C  0.53294974  0.61570904  0.14683179     0.00000
C752        C  0.54726673  0.61096804  0.11911740    -0.11900
C753        C  0.55729397  0.63698115  0.09529450     0.02200
C754        C  0.55310784  0.66891746  0.09888220    -0.00100
C755        C  0.53831998  0.67324830  0.12659202    -0.11800
C756        C  0.52816022  0.64722421  0.15023593     0.02100
H757        H  0.55137952  0.58712463  0.11620175     0.15100
H758        H  0.53395029  0.69691708  0.12984726     0.15100
C759        C  0.51162869  0.65318989  0.17720113     0.36700
C760        C  0.57250591  0.63024753  0.06792583     0.36600
N761        N  0.49834682  0.65820130  0.19865513    -0.43600
N762        N  0.58462629  0.62448604  0.04610497    -0.43600
C763        C  0.54116832  0.61696685  0.35470692     0.00000
C764        C  0.51258824  0.62049433  0.36869689    -0.11900
C765        C  0.52073502  0.64596975  0.39244916     0.02200
C766        C  0.55800352  0.66799373  0.40269007    -0.00100
C767        C  0.58657499  0.66384238  0.38923537    -0.11800
C768        C  0.57839993  0.63840262  0.36523940     0.02100
H769        H  0.48390304  0.60357557  0.36079446     0.15100
H770        H  0.61525825  0.68101531  0.39702018     0.15100
C771        C  0.60858461  0.63506543  0.35175827     0.36700
C772        C  0.49043073  0.64927419  0.40578645     0.36600
N773        N  0.63319172  0.63291949  0.34117254    -0.43600
N774        N  0.46602712  0.65178405  0.41637108    -0.43600
C775        C  0.38352824  0.46202383  0.14661766     0.00000
C776        C  0.34536124  0.43679344  0.15229327    -0.11900
C777        C  0.31853280  0.42645202  0.12927648     0.02200
C778        C  0.32946496  0.44185640  0.09977175    -0.00100
C779        C  0.36760047  0.46631875  0.09374662    -0.11800
C780        C  0.39457137  0.47664431  0.11675595     0.02100
H781        H  0.33638476  0.42455715  0.17473848     0.15100
H782        H  0.37622014  0.47856227  0.07125748     0.15100
C783        C  0.43300749  0.50364527  0.10919836     0.36700
C784        C  0.28011353  0.39877201  0.13627182     0.36600
N785        N  0.46378617  0.52530523  0.10312423    -0.43600
N786        N  0.24939132  0.37637755  0.14177178    -0.43600
C787        C  0.38282887  0.45988178  0.35482126     0.00000
C788        C  0.38312338  0.43877135  0.37985184    -0.11900
C789        C  0.35629934  0.42814615  0.40314321     0.02200
C790        C  0.32879206  0.43899082  0.40153393    -0.00100
C791        C  0.32900364  0.46036344  0.37654152    -0.11800
C792        C  0.35557650  0.47092307  0.35346604     0.02100
H793        H  0.40391759  0.42999402  0.38092542     0.15100
H794        H  0.30876867  0.46982960  0.37528346     0.15100
C795        C  0.35510939  0.49462500  0.32946526     0.36700
C796        C  0.35693831  0.40523017  0.42770410     0.36600
N797        N  0.35446269  0.51371422  0.31046974    -0.43600
N798        N  0.35743041  0.38677248  0.44733196    -0.43600
C799        C  0.92023174  0.53512916  0.14471823     0.00000
C800        C  0.94134116  0.55406356  0.11875474    -0.11900
C801        C  0.92588026  0.56561038  0.09562663     0.02200
C802        C  0.88836613  0.55752871  0.09806597    -0.00100
C803        C  0.86735150  0.53808496  0.12386688    -0.11800
C804        C  0.88271226  0.52691035  0.14693343     0.02100
H805        H  0.97034019  0.56087035  0.11694925     0.15100
H806        H  0.83822056  0.53076947  0.12591469     0.15100
C807        C  0.85852449  0.50571419  0.17194473     0.36700
C808        C  0.94956400  0.58715339  0.07055187     0.36600
N809        N  0.83870655  0.48869392  0.19173778    -0.43600
N810        N  0.96852423  0.60472933  0.05053735    -0.43600
C811        C  0.91875845  0.53802748  0.35199520     0.00000
C812        C  0.88056034  0.51351183  0.35734060    -0.11900
C813        C  0.86225449  0.52006446  0.38133125     0.02200
C814        C  0.88226605  0.55201983  0.40005924    -0.00100
C815        C  0.92061130  0.57627141  0.39496990    -0.11800
C816        C  0.93892379  0.56964845  0.37094933     0.02100
H817        H  0.86522564  0.48880160  0.34311763     0.15100
H818        H  0.93592152  0.60106516  0.40910579     0.15100
C819        C  0.97763025  0.59705181  0.36505824     0.36700
C820        C  0.82342681  0.49265986  0.38721510     0.36600
N821        N  0.00839971  0.61989782  0.36041195    -0.43600
N822        N  0.79244475  0.47050802  0.39212779    -0.43600
C823        C  0.91789722  0.38387490  0.14436012     0.00000
C824        C  0.88108363  0.37385900  0.13674278    -0.11900
C825        C  0.86316163  0.35015854  0.11199032     0.02200
C826        C  0.88216635  0.33592656  0.09458957    -0.00100
C827        C  0.91948567  0.34705804  0.10149783    -0.11800
C828        C  0.93738322  0.37067846  0.12636833     0.02100
H829        H  0.86644667  0.38483020  0.15002048     0.15100
H830        H  0.93402252  0.33584437  0.08837712     0.15100
C831        C  0.97471455  0.37877289  0.13412794     0.36700
C832        C  0.82558047  0.34152155  0.10438046     0.36600
N833        N  0.00433833  0.38429925  0.14028457    -0.43600
N834        N  0.79556956  0.33479001  0.09813721    -0.43600
C835        C  0.91871020  0.38104945  0.35280298     0.00000
C836        C  0.91213625  0.34458565  0.34733798    -0.11900
C837        C  0.89650631  0.31691018  0.36975156     0.02200
C838        C  0.88799410  0.32580697  0.39861420    -0.00100
C839        C  0.89488901  0.36233987  0.40426713    -0.11800
C840        C  0.90945853  0.38976188  0.38153678     0.02100
H841        H  0.91922928  0.33759106  0.32541643     0.15100
H842        H  0.88695204  0.36891504  0.42601072     0.15100
C843        C  0.91185034  0.42546297  0.38763008     0.36700
C844        C  0.88963064  0.27973098  0.36245720     0.36600
N845        N  0.91332540  0.45386129  0.39242382    -0.43600
N846        N  0.88407198  0.25000096  0.35628533    -0.43600
C847        C  0.08101402  0.46155473  0.14798933     0.00000
C848        C  0.07467230  0.46751265  0.11753142    -0.11900
C849        C  0.09039284  0.45799144  0.09338544     0.02200
C850        C  0.11325138  0.44224324  0.09955049    -0.00100
C851        C  0.11836979  0.43498803  0.12978257    -0.11800
C852        C  0.10286305  0.44451455  0.15386925     0.02100
H853        H  0.05753960  0.47995767  0.11235680     0.15100
H854        H  0.13515965  0.42209870  0.13482074     0.15100
C855        C  0.11065160  0.43644478  0.18406447     0.36700
C856        C  0.08306817  0.46559026  0.06284360     0.36600
N857        N  0.11758383  0.42991464  0.20798248    -0.43600
N858        N  0.07680479  0.47155875  0.03847624    -0.43600
C859        C  0.11080603  0.43784770  0.40142689     0.00000
C860        C  0.09014353  0.45519266  0.40963879    -0.11900
C861        C  0.07232068  0.46539898  0.38763727     0.02200
C862        C  0.07493404  0.45816142  0.35633951    -0.00100
C863        C  0.09425209  0.43918201  0.34850079    -0.11800
C864        C  0.11175382  0.42881870  0.37050633     0.02100
H865        H  0.08896736  0.46208048  0.43332302     0.15100
H866        H  0.09571377  0.43211353  0.32493388     0.15100
C867        C  0.12947069  0.40788396  0.36063202     0.36700
C868        C  0.05253051  0.48395964  0.39827282     0.36600
N869        N  0.14352439  0.39096764  0.35280197    -0.43600
N870        N  0.03670237  0.49865829  0.40726689    -0.43600
C871        C  0.08258110  0.61602966  0.14624294     0.00000
C872        C  0.06722194  0.60758120  0.11672222    -0.11900
C873        C  0.08199124  0.63417281  0.09322500     0.02200
C874        C  0.11303378  0.67038001  0.09901113    -0.00100
C875        C  0.12801232  0.67865298  0.12863153    -0.11800
C876        C  0.11364713  0.65214569  0.15188253     0.02100
H877        H  0.04321135  0.58015936  0.11192512     0.15100
H878        H  0.15195509  0.70596336  0.13383188     0.15100
C879        C  0.13249884  0.66304555  0.18095992     0.36700
C880        C  0.06450566  0.62319932  0.06366039     0.36600
N881        N  0.14771783  0.67196941  0.20417599    -0.43600
N882        N  0.05052093  0.61441640  0.03995920    -0.43600
C883        C  0.11256626  0.66849678  0.40273830     0.00000
C884        C  0.11878710  0.68070604  0.37232758    -0.11900
C885        C  0.10383862  0.65552852  0.34815561     0.02200
C886        C  0.08103826  0.61655650  0.35396371    -0.00100
C887        C  0.07408360  0.60434181  0.38447767    -0.11800
C888        C  0.08958157  0.62969842  0.40872777     0.02100
H889        H  0.13605648  0.71038162  0.36715410     0.15100
H890        H  0.05655303  0.57471981  0.38959470     0.15100
C891        C  0.08211092  0.61468345  0.43925204     0.36700
C892        C  0.11298975  0.67122442  0.31785613     0.36600
N893        N  0.07598696  0.60246841  0.46365151    -0.43600
N894        N  0.12067900  0.68407270  0.29369848    -0.43600
C895        C  0.32586273  0.89024457  0.09980480     0.00000
C896        C  0.36262544  0.89787038  0.09470907    -0.11900
C897        C  0.38930793  0.91184540  0.11798490     0.02200
C898        C  0.37952509  0.91903499  0.14711452    -0.00100
C899        C  0.34291174  0.91225971  0.15199107    -0.11800
C900        C  0.31615351  0.89804622  0.12869159     0.02100
H901        H  0.37008525  0.89113400  0.07283182     0.15100
H902        H  0.33524747  0.91845684  0.17399361     0.15100
C903        C  0.27921578  0.89241207  0.13487249     0.36700
C904        C  0.42583827  0.91656041  0.11162952     0.36600
N905        N  0.24972452  0.88809383  0.13992821    -0.43600
N906        N  0.45505371  0.92026539  0.10643676    -0.43600
C907        C  0.32746187  0.88491183  0.40167973     0.00000
C908        C  0.36331201  0.88974234  0.40546088    -0.11900
C909        C  0.39020399  0.90578145  0.38247069     0.02200
C910        C  0.38145121  0.91788152  0.35519339    -0.00100
C911        C  0.34568564  0.91372739  0.35175076    -0.11800
C912        C  0.31865733  0.89728356  0.37467621     0.02100
H913        H  0.36980139  0.87944001  0.42595135     0.15100
H914        H  0.33889454  0.92354125  0.33115593     0.15100
C915        C  0.28255748  0.89439606  0.37032942     0.36700
C916        C  0.42546332  0.90699048  0.38687209     0.36600
N917        N  0.25376290  0.89235584  0.36683188    -0.43600
N918        N  0.45336355  0.90731260  0.39077617    -0.43600
C919        C  0.53843628  0.92021077  0.14615479     0.00000
C920        C  0.55018498  0.93849586  0.11784696    -0.11900
C921        C  0.56152844  0.92353139  0.09401114     0.02200
C922        C  0.56156610  0.88944245  0.09836517    -0.00100
C923        C  0.55069620  0.87189591  0.12703406    -0.11800
C924        C  0.53871820  0.88635026  0.15042743     0.02100
H925        H  0.55052979  0.96465402  0.11427241     0.15100
H926        H  0.54982079  0.84547636  0.13109358     0.15100
C927        C  0.52457679  0.86410474  0.17776371     0.36700
C928        C  0.57237838  0.94366902  0.06550297     0.36600
N929        N  0.51299979  0.84589319  0.19943942    -0.43600
N930        N  0.58081756  0.95995219  0.04271713    -0.43600
C931        C  0.56429174  0.88799058  0.39881510     0.00000
C932        C  0.55580257  0.91591237  0.40711931    -0.11900
C933        C  0.54604530  0.93425224  0.38526338     0.02200
C934        C  0.54334323  0.92384929  0.35412765    -0.00100
C935        C  0.55357148  0.89723115  0.34579629    -0.11800
C936        C  0.56464144  0.87997138  0.36740991     0.02100
H937        H  0.55622549  0.92322730  0.43090654     0.15100
H938        H  0.55291482  0.88954697  0.32207744     0.15100
C939        C  0.57677832  0.85477204  0.35604207     0.36700
C940        C  0.53961079  0.96382887  0.39584736     0.36600
N941        N  0.58661049  0.83488234  0.34647949    -0.43600
N942        N  0.53450886  0.98741592  0.40471378    -0.43600
C943        C  0.61604392  0.07823485  0.14621641     0.00000
C944        C  0.65331945  0.10378123  0.15431682    -0.11900
C945        C  0.68158434  0.12070779  0.13244489     0.02200
C946        C  0.67277843  0.11345829  0.10102654    -0.00100
C947        C  0.63585823  0.08692910  0.09290240    -0.11800
C948        C  0.60772765  0.06909694  0.11491743     0.02100
H949        H  0.66084763  0.11049984  0.17807317     0.15100
H950        H  0.62856332  0.08054172  0.06907705     0.15100
C951        C  0.57076750  0.04203181  0.10412151     0.36700
C952        C  0.71935612  0.14426085  0.14360078     0.36600
N953        N  0.54125456  0.02056939  0.09510030    -0.43600
N954        N  0.74931235  0.16266622  0.15322875    -0.43600
C955        C  0.67114311  0.10535064  0.40123346     0.00000
C956        C  0.63420217  0.09680518  0.40679617    -0.11900
C957        C  0.60710628  0.08168394  0.38390707     0.02200
C958        C  0.61645440  0.07348614  0.35495689    -0.00100
C959        C  0.65309509  0.08041253  0.34993417    -0.11800
C960        C  0.68040743  0.09634471  0.37271863     0.02100
H961        H  0.62707809  0.10434536  0.42848531     0.15100
H962        H  0.66051338  0.07357697  0.32809333     0.15100
C963        C  0.71758998  0.10272707  0.36652488     0.36700
C964        C  0.57123402  0.07854932  0.39003894     0.36600
N965        N  0.74741729  0.10779835  0.36178052    -0.43600
N966        N  0.54284605  0.07679460  0.39510405    -0.43600
C967        C  0.43842255  0.10815550  0.09819480     0.00000
C968        C  0.47373676  0.11087593  0.09803918    -0.11900
C969        C  0.48496729  0.09655784  0.12217830     0.02200
C970        C  0.46065640  0.07915853  0.14712550    -0.00100
C971        C  0.42518648  0.07626289  0.14717056    -0.11800
C972        C  0.41386634  0.09032406  0.12283966     0.02100
H973        H  0.49313578  0.12549297  0.07955919     0.15100
H974        H  0.40600072  0.06226550  0.16590744     0.15100
C975        C  0.37644047  0.08495277  0.12288663     0.36700
C976        C  0.52235307  0.10189703  0.12163263     0.36600
N977        N  0.34633814  0.08035392  0.12245661    -0.43600
N978        N  0.55242642  0.10645588  0.12134207    -0.43600
C979        C  0.43825349  0.11221501  0.40007605     0.00000
C980        C  0.44440566  0.08265835  0.40815406    -0.11900
C981        C  0.45243889  0.06299917  0.38608357     0.02200
C982        C  0.45573998  0.07367422  0.35505715    -0.00100
C983        C  0.44821461  0.10218129  0.34698871    -0.11800
C984        C  0.43918676  0.12103556  0.36873090     0.02100
H985        H  0.44313229  0.07483739  0.43186207     0.15100
H986        H  0.44971575  0.11035715  0.32334298     0.15100
C987        C  0.43105461  0.14912894  0.35739006     0.36700
C988        C  0.45614572  0.03159545  0.39614598     0.36600
N989        N  0.42465403  0.17143798  0.34768522    -0.43600
N990        N  0.45908407  0.00646426  0.40432411    -0.43600
O991        O  0.46178908  0.06509232  0.80051532    -0.75200
O992        O  0.48261185  0.03985070  0.83603757    -0.54100
C993        C  0.46675680  0.05856035  0.82831296     0.78600
O994        O  0.39833681  0.92761382  0.69814882    -0.59800
O995        O  0.44384137  0.96123703  0.66313509    -0.52800
C996        C  0.41002872  0.93722632  0.67056905     0.70600
O997        O  0.39871527  0.93048755  0.80171456    -0.74300
O998        O  0.44545941  0.96175629  0.83631044    -0.54900
C999        C  0.41116147  0.93889003  0.82917471     0.76600
O1000       O  0.46718408  0.07015993  0.69726809    -0.59500
O1001       O  0.48483516  0.04073123  0.66245047    -0.52600
C1002       C  0.47189473  0.06233841  0.66974499     0.73200
Zr1003     Zr  0.47912782  0.05664217  0.74903465     2.54700
O1004       O  0.42588832  0.06690973  0.74709246    -0.80000
O1005       O  0.51917444  0.12456411  0.75212404    -0.93400
Zr1006     Zr  0.42374825  0.94435294  0.74984708     2.64700
O1007       O  0.36368779  0.94248428  0.74919296    -0.98400
O1008       O  0.39259956  0.87602982  0.75070121    -0.80500
O1009       O  0.45113886  0.00087319  0.77844322    -0.83800
O1010       O  0.45043725  0.00010637  0.72054805    -2.18500
O1011       O  0.60065670  0.06903572  0.69646483    -0.67200
O1012       O  0.55446235  0.03778262  0.66177332    -0.51800
C1013       C  0.58883330  0.05965309  0.66888810     0.71600
O1014       O  0.53659130  0.93623980  0.80151750    -0.60100
O1015       O  0.52006479  0.96565398  0.83687935    -0.52100
C1016       C  0.53369790  0.94478475  0.82927924     0.73400
O1017       O  0.52757616  0.92708630  0.69840416    -0.71500
O1018       O  0.51546723  0.96004944  0.66306981    -0.50200
C1019       C  0.52505820  0.93592598  0.67075205     0.74700
O1020       O  0.60300810  0.07256228  0.79981557    -0.66800
O1021       O  0.55679574  0.04280352  0.83509134    -0.54000
C1022       C  0.59112355  0.06484082  0.82751008     0.73100
Zr1023     Zr  0.57601467  0.05820844  0.74858600     2.77500
O1024       O  0.64042505  0.07082771  0.75061055    -0.97600
O1025       O  0.59985955  0.12560501  0.74683062    -0.78400
Zr1026     Zr  0.52060791  0.94544260  0.74988781     2.70100
O1027       O  0.57707571  0.94076681  0.74557896    -0.79700
O1028       O  0.48326211  0.87731654  0.75431043    -0.98700
Zr1029     Zr  0.50072596  0.00201476  0.80689845     2.21500
Zr1030     Zr  0.49962546  0.00031147  0.69187906     2.11100
O1031       O  0.54900634  0.00116089  0.72057830    -2.47400
O1032       O  0.54963873  0.00232965  0.77797336    -0.79500
O1033       O  0.52798688  0.05832643  0.71897749    -0.71600
O1034       O  0.47186552  0.94419827  0.77950042    -2.32600
O1035       O  0.52845524  0.05911388  0.77858094    -2.28800
O1036       O  0.47148606  0.94330578  0.72018938    -0.73400
H1037       H  0.43141074  0.99972058  0.70753381     0.78600
H1038       H  0.46152173  0.92310169  0.79330154     0.79700
H1039       H  0.56764030  0.00050830  0.70762887     0.81900
H1040       H  0.53897396  0.08074498  0.79188531     0.79500
H1041       H  0.39690020  0.86976957  0.77149221     0.42500
H1042       H  0.50192920  0.86931247  0.75794390     0.41500
H1043       H  0.59440411  0.95844623  0.76105193     0.41200
H1044       H  0.64152303  0.05339284  0.73561455     0.39100
H1045       H  0.62387364  0.13599530  0.73558106     0.42300
H1046       H  0.50159832  0.13431189  0.75075388     0.37000
H1047       H  0.40577761  0.04414784  0.73702605     0.43200
H1048       H  0.36481301  0.95827262  0.76666304     0.39600
H1049       H  0.65573606  0.09608133  0.74151181     0.44500
H1050       H  0.53292405  0.13170540  0.73252719     0.43200
H1051       H  0.36484620  0.95734794  0.73111132     0.43400
H1052       H  0.46973778  0.87264412  0.77390776     0.43700
O1053       O  0.07116944  0.59862057  0.80135096    -0.75200
O1054       O  0.03790452  0.55444940  0.83706603    -0.54100
C1055       C  0.06208837  0.58808959  0.82906853     0.78600
O1056       O  0.93036171  0.53206647  0.69866230    -0.59800
O1057       O  0.95965983  0.51529803  0.66331390    -0.52800
C1058       C  0.93811336  0.52825258  0.67097955     0.70600
O1059       O  0.92664089  0.52932780  0.80168449    -0.74300
O1060       O  0.95943668  0.51660845  0.83690280    -0.54900
C1061       C  0.93581844  0.52665023  0.82914274     0.76600
O1062       O  0.07280580  0.59836525  0.69883229    -0.59500
O1063       O  0.03878478  0.55313653  0.66364267    -0.52600
C1064       C  0.06352333  0.58674496  0.67127814     0.73200
Zr1065     Zr  0.05505330  0.57330615  0.75018962     2.54700
O1066       O  0.05388974  0.63192091  0.75020866    -0.80000
O1067       O  0.12328572  0.60666785  0.74913742    -0.93400
Zr1068     Zr  0.94345024  0.52049664  0.75023098     2.64700
O1069       O  0.94183136  0.57890395  0.75255985    -0.98400
O1070       O  0.87534183  0.48343510  0.74749480    -0.80500
O1071       O  0.99928791  0.54811759  0.77939618    -0.83800
O1072       O  0.99951297  0.54755358  0.72118501    -2.18500
O1073       O  0.07079769  0.46827441  0.70087254    -0.67200
O1074       O  0.03883258  0.48134000  0.66537052    -0.51800
C1075       C  0.06247990  0.47117309  0.67314627     0.71600
O1076       O  0.92614130  0.39649914  0.80174546    -0.60100
O1077       O  0.95749682  0.44282863  0.83681336    -0.52100
C1078       C  0.93488564  0.40858975  0.82928605     0.73400
O1079       O  0.92167463  0.39706883  0.69844735    -0.71500
O1080       O  0.95890369  0.44170389  0.66377833    -0.50200
C1081       C  0.93300565  0.40849285  0.67105372     0.74700
O1082       O  0.06380013  0.46299783  0.80432573    -0.66800
O1083       O  0.03530407  0.48163927  0.83879138    -0.54000
C1084       C  0.05624194  0.46787080  0.83194239     0.73100
Zr1085     Zr  0.05126361  0.47473137  0.75200341     2.77500
O1086       O  0.04759506  0.41375169  0.75103511    -0.97600
O1087       O  0.11926766  0.50806989  0.75687796    -0.78400
Zr1088     Zr  0.93916683  0.42246742  0.75035370     2.70100
O1089       O  0.92905613  0.35891958  0.74875327    -0.79700
O1090       O  0.87197716  0.39864135  0.75404269    -0.98700
Zr1091     Zr  0.99759015  0.49861332  0.80826845     2.21500
Zr1092     Zr  0.99814859  0.49763328  0.69279171     2.11100
O1093       O  0.99577948  0.44783133  0.72213638    -2.47400
O1094       O  0.99475149  0.44792990  0.78010652    -0.79500
O1095       O  0.05463279  0.52416703  0.72159058    -0.71600
O1096       O  0.94047594  0.47126277  0.78013811    -2.32600
O1097       O  0.05474302  0.52535352  0.78038454    -2.28800
O1098       O  0.94061204  0.47095573  0.72034637    -0.73400
H1099       H  0.00047266  0.56677491  0.70803104     0.78600
H1100       H  0.91896877  0.46106727  0.79353499     0.79700
H1101       H  0.99526939  0.42860638  0.70914559     0.81900
H1102       H  0.07618903  0.53568904  0.79377441     0.79500
H1103       H  0.86702457  0.47602328  0.76878136     0.42500
H1104       H  0.86647729  0.41108732  0.73720849     0.41500
H1105       H  0.95458705  0.36242273  0.74712569     0.41200
H1106       H  0.03649475  0.40203484  0.77087318     0.39100
H1107       H  0.12862935  0.52266266  0.73780379     0.42300
H1108       H  0.13049940  0.59561031  0.76595178     0.37000
H1109       H  0.03596936  0.62889346  0.73397613     0.43200
H1110       H  0.95048240  0.59079506  0.73235489     0.39600
H1111       H  0.02769504  0.39876741  0.73605023     0.44500
H1112       H  0.13085185  0.63239129  0.75616663     0.43200
H1113       H  0.91481213  0.57086348  0.75320320     0.43400
H1114       H  0.86031317  0.37202246  0.74764575     0.43700
O1115       O  0.39809977  0.46892126  0.80090994    -0.75200
O1116       O  0.44248580  0.48180569  0.83698978    -0.54100
C1117       C  0.40855624  0.47062481  0.82873987     0.78600
O1118       O  0.46908833  0.39761096  0.69996262    -0.59800
O1119       O  0.48641625  0.44438684  0.66494747    -0.52800
C1120       C  0.47421874  0.41003504  0.67243504     0.70600
O1121       O  0.46423640  0.39707429  0.80373428    -0.74300
O1122       O  0.48220650  0.44444843  0.83821254    -0.54900
C1123       C  0.46882299  0.40972593  0.83127461     0.76600
O1124       O  0.40174633  0.47539289  0.69769733    -0.59500
O1125       O  0.44727563  0.48532943  0.66329285    -0.52600
C1126       C  0.41383125  0.47726546  0.67023765     0.73200
Zr1127     Zr  0.42547895  0.48270301  0.74997346     2.54700
O1128       O  0.36266200  0.42812047  0.74868935    -0.80000
O1129       O  0.40002109  0.52481527  0.75031585    -0.93400
Zr1130     Zr  0.47816109  0.42288726  0.75176282     2.64700
O1131       O  0.42108248  0.36162430  0.75197670    -0.98400
O1132       O  0.51578358  0.39237439  0.75366248    -0.80500
O1133       O  0.45051222  0.45225904  0.77952290    -0.83800
O1134       O  0.45116860  0.45160511  0.72202149    -2.18500
O1135       O  0.53056440  0.60204167  0.69954914    -0.67200
O1136       O  0.51711675  0.55603163  0.66453387    -0.51800
C1137       C  0.52698871  0.58999607  0.67198099     0.71600
O1138       O  0.60200683  0.53786802  0.80274193    -0.60100
O1139       O  0.55586973  0.51933663  0.83822956    -0.52100
C1140       C  0.59056919  0.53489578  0.83052074     0.73400
O1141       O  0.60144913  0.52888545  0.69956813    -0.71500
O1142       O  0.55664193  0.51734681  0.66445394    -0.50200
C1143       C  0.59041350  0.52765954  0.67187348     0.74700
O1144       O  0.54302536  0.60380463  0.80191799    -0.66800
O1145       O  0.51649576  0.55656680  0.83685430    -0.54000
C1146       C  0.53488964  0.59135188  0.82931698     0.73100
Zr1147     Zr  0.52375226  0.57720517  0.75104678     2.77500
O1148       O  0.58101108  0.63787073  0.74577331    -0.97600
O1149       O  0.48632150  0.60757296  0.75658141    -0.78400
Zr1150     Zr  0.57604871  0.51748171  0.75158270     2.70100
O1151       O  0.64162887  0.56668902  0.74931363    -0.79700
O1152       O  0.59900438  0.47346046  0.75614532    -0.98700
Zr1153     Zr  0.49967309  0.50008757  0.80874414     2.21500
Zr1154     Zr  0.50140026  0.50011669  0.69365487     2.11100
O1155       O  0.55118800  0.54838381  0.72243593    -2.47400
O1156       O  0.54996325  0.54774614  0.78007705    -0.79500
O1157       O  0.47452991  0.53067032  0.72097608    -0.71600
O1158       O  0.52741594  0.46991492  0.78156952    -2.32600
O1159       O  0.47337924  0.53053423  0.78031206    -2.28800
O1160       O  0.52787912  0.46951928  0.72177531    -0.73400
H1161       H  0.43216611  0.43309900  0.70879395     0.78600
H1162       H  0.53744571  0.45908207  0.79552449     0.79700
H1163       H  0.57032311  0.56728992  0.70954936     0.81900
H1164       H  0.46312227  0.54185558  0.79365527     0.79500
H1165       H  0.53155243  0.40262688  0.77205589     0.42500
H1166       H  0.62567360  0.48813059  0.74992993     0.41500
H1167       H  0.64113637  0.59023983  0.75275828     0.41200
H1168       H  0.57723683  0.65529725  0.75891582     0.39100
H1169       H  0.49637122  0.62354734  0.77493844     0.42300
H1170       H  0.40207071  0.53319375  0.77171939     0.37000
H1171       H  0.36626285  0.40689690  0.75450132     0.43200
H1172       H  0.40713957  0.36132789  0.73356543     0.39600
H1173       H  0.60048948  0.63471346  0.75626713     0.44500
H1174       H  0.37279746  0.50814725  0.74690550     0.43200
H1175       H  0.42966584  0.34352816  0.74749525     0.43400
H1176       H  0.59990443  0.46981330  0.77832804     0.43700
O1177       O  0.78945805  0.47038795  0.49341817    -0.75200
O1178       O  0.85126008  0.51546374  0.49719781    -0.54100
C1179       C  0.82344016  0.48026801  0.99382950     0.78600
O1180       O  0.73300278  0.57593636  0.91607845    -0.59800
O1181       O  0.69325471  0.57344953  0.95307952    -0.52800
C1182       C  0.70265561  0.57462210  0.92485880     0.70600
O1183       O  0.83182210  0.55902792  0.91620586    -0.74300
O1184       O  0.87618930  0.56815691  0.95146399    -0.54900
C1185       C  0.86204433  0.55986161  0.92460504     0.76600
O1186       O  0.68156179  0.47078134  0.50782505    -0.59500
O1187       O  0.66422512  0.51565739  0.00297751    -0.52600
C1188       C  0.65630367  0.48142304  0.00707962     0.73200
Zr1189     Zr  0.74837002  0.49655544  0.49969070     2.54700
O1190       O  0.71666116  0.44609463  0.96354767    -0.80000
O1191       O  0.72869210  0.44663529  0.53726009    -0.93400
Zr1192     Zr  0.78623024  0.57383136  0.93692580     2.64700
O1193       O  0.75959187  0.52856224  0.89543416    -0.98400
O1194       O  0.81835901  0.62532630  0.90100866    -0.80500
O1195       O  0.79776956  0.53416590  0.96821806    -0.83800
O1196       O  0.73467756  0.53360491  0.96833022    -2.18500
O1197       O  0.73250715  0.56656827  0.58492605    -0.67200
O1198       O  0.69473955  0.57074450  0.54949627    -0.51800
C1199       C  0.70259239  0.56654809  0.57710263     0.71600
O1200       O  0.89659704  0.68065535  0.99871678    -0.60100
O1201       O  0.90910659  0.63237623  0.99729257    -0.52100
C1202       C  0.91979622  0.66805018  0.49627140     0.73400
O1203       O  0.78522559  0.68104646  0.99950903    -0.71500
O1204       O  0.72445358  0.63275419  0.00202099    -0.50200
C1205       C  0.75072718  0.66888405  0.50218959     0.74700
O1206       O  0.84247203  0.57298159  0.58278990    -0.66800
O1207       O  0.88015709  0.57146862  0.54576656    -0.54000
C1208       C  0.87083765  0.57051790  0.57388100     0.73100
Zr1209     Zr  0.79038882  0.57707274  0.56248513     2.77500
O1210       O  0.81586908  0.63285912  0.59461067    -0.97600
O1211       O  0.77380873  0.53829807  0.60797773    -0.78400
Zr1212     Zr  0.82776785  0.65439336  0.99925604     2.70100
O1213       O  0.85150008  0.69981886  0.54104223    -0.79700
O1214       O  0.85321177  0.70136476  0.95909629    -0.98700
Zr1215     Zr  0.85008797  0.57379934  0.99925430     2.21500
Zr1216     Zr  0.72450294  0.57417842  0.00066155     2.11100
O1217       O  0.77729845  0.61613927  0.53188503    -2.47400
O1218       O  0.84186651  0.61620754  0.53095297    -0.79500
O1219       O  0.73796167  0.53615017  0.53242075    -0.71600
O1220       O  0.83882277  0.61404851  0.96711103    -2.32600
O1221       O  0.79979641  0.53517079  0.53158109    -2.28800
O1222       O  0.77538898  0.61446764  0.96807757    -0.73400
H1223       H  0.71276376  0.51790693  0.95618761     0.78600
H1224       H  0.86010562  0.62869632  0.95398595     0.79700
H1225       H  0.77118530  0.63132009  0.54485192     0.81900
H1226       H  0.80565385  0.51936668  0.54388791     0.79500
H1227       H  0.82051509  0.61323836  0.88219195     0.42500
H1228       H  0.83106392  0.69719828  0.94721747     0.41500
H1229       H  0.86273071  0.68977063  0.55543822     0.41200
H1230       H  0.79365076  0.63282417  0.60328766     0.39100
H1231       H  0.76905378  0.51353513  0.60056438     0.42300
H1232       H  0.75220484  0.45046001  0.54658396     0.37000
H1233       H  0.70653574  0.42255256  0.97542784     0.43200
H1234       H  0.73258544  0.51287966  0.90034236     0.39600
H1235       H  0.82718182  0.62697268  0.61206332     0.44500
H1236       H  0.71934889  0.42333136  0.52510766     0.43200
H1237       H  0.76047100  0.54339425  0.87744070     0.43400
H1238       H  0.86168732  0.72556287  0.96972178     0.43700
O1239       O  0.67981422  0.21051735  0.49014465    -0.75200
O1240       O  0.66406445  0.14944743  0.49791001    -0.54100
C1241       C  0.65507403  0.17286197  0.99600217     0.78600
O1242       O  0.84191518  0.26575508  0.91433622    -0.59800
O1243       O  0.87854164  0.30618115  0.95157892    -0.52800
C1244       C  0.86943513  0.29721968  0.92361586     0.70600
O1245       O  0.73280731  0.15897505  0.91407194    -0.74300
O1246       O  0.69303518  0.12141683  0.95133716    -0.54900
C1247       C  0.70174299  0.13104607  0.92323892     0.76600
O1248       O  0.78836110  0.31864915  0.49311158    -0.59500
O1249       O  0.84965924  0.33450900  0.99487262    -0.52600
C1250       C  0.82314102  0.34208241  0.99124494     0.73200
Zr1251     Zr  0.74705608  0.25106232  0.49578533     2.54700
O1252       O  0.72302343  0.27007769  0.95224268    -0.80000
O1253       O  0.72254912  0.27050438  0.53819200    -0.93400
Zr1254     Zr  0.79029788  0.20830893  0.93582873     2.64700
O1255       O  0.77180245  0.22494237  0.88832890    -0.98400
O1256       O  0.81750163  0.17669286  0.90764824    -0.80500
O1257       O  0.73711967  0.19799549  0.96483704    -0.83800
O1258       O  0.79885286  0.26086448  0.96435455    -2.18500
O1259       O  0.83227651  0.27432524  0.58114208    -0.67200
O1260       O  0.87471047  0.31036459  0.54484336    -0.51800
C1261       C  0.86152173  0.30440993  0.57217553     0.71600
O1262       O  0.78395540  0.10310230  0.00527813    -0.60100
O1263       O  0.72289788  0.08953456  0.00311214    -0.52100
C1264       C  0.74774373  0.08069483  0.50335440     0.73400
O1265       O  0.89546184  0.21501348  0.00383749    -0.71500
O1266       O  0.90812397  0.27592000  0.00259541    -0.50200
C1267       C  0.91856208  0.25137927  0.50119623     0.74700
O1268       O  0.73006087  0.16204132  0.58242718    -0.66800
O1269       O  0.69192877  0.12135678  0.54634489    -0.54000
C1270       C  0.70022934  0.13211105  0.57416879     0.73100
Zr1271     Zr  0.78602911  0.21398102  0.56107731     2.77500
O1272       O  0.81439885  0.19125102  0.59761030    -0.97600
O1273       O  0.76200219  0.23373980  0.60361556    -0.78400
Zr1274     Zr  0.82671607  0.17220880  0.00289043     2.70100
O1275       O  0.84926216  0.14796249  0.53942273    -0.79700
O1276       O  0.85112363  0.14744256  0.96423803    -0.98700
Zr1277     Zr  0.72373811  0.14874055  0.99981889     2.21500
Zr1278     Zr  0.84909743  0.27506244  0.99854642     2.11100
O1279       O  0.83841390  0.22504018  0.53105315    -2.47400
O1280       O  0.77483959  0.16147113  0.53125425    -0.79500
O1281       O  0.79752319  0.26460467  0.52879570    -0.71600
O1282       O  0.77600207  0.15780333  0.96933850    -2.32600
O1283       O  0.73440496  0.20162628  0.52972694    -2.28800
O1284       O  0.84102144  0.22270995  0.96878364    -0.73400
H1285       H  0.80457005  0.28155051  0.95086240     0.78600
H1286       H  0.76968477  0.13549308  0.95762607     0.79700
H1287       H  0.85982710  0.23222000  0.54406130     0.81900
H1288       H  0.71265783  0.19613636  0.54186188     0.79500
H1289       H  0.84462971  0.19534366  0.90661393     0.42500
H1290       H  0.86708797  0.14001451  0.97561504     0.41500
H1291       H  0.85771008  0.13248036  0.52841041     0.41200
H1292       H  0.82980921  0.18389140  0.58525942     0.39100
H1293       H  0.74145491  0.23652945  0.59477484     0.42300
H1294       H  0.71164877  0.28461786  0.52860529     0.37000
H1295       H  0.72565508  0.25693006  0.93431928     0.43200
H1296       H  0.77552009  0.25038729  0.89182034     0.39600
H1297       H  0.83284101  0.21395380  0.60882013     0.44500
H1298       H  0.74512137  0.28987766  0.54893359     0.43200
H1299       H  0.79129215  0.22855397  0.87330026     0.43400
H1300       H  0.82930716  0.12338655  0.95759964     0.43700
O1301       O  0.31873979  0.78697597  0.49703764    -0.75200
O1302       O  0.33564652  0.84891012  0.49954315    -0.54100
C1303       C  0.34307911  0.82402854  0.99657135     0.78600
O1304       O  0.16333943  0.72871492  0.91568351    -0.59800
O1305       O  0.12368090  0.69138792  0.95279081    -0.52800
C1306       C  0.13443492  0.69839243  0.92489639     0.70600
O1307       O  0.27089611  0.83684799  0.91493975    -0.74300
O1308       O  0.30900385  0.87556053  0.95243001    -0.54900
C1309       C  0.30127220  0.86551210  0.92437082     0.76600
O1310       O  0.20942435  0.67898373  0.50562223    -0.59500
O1311       O  0.14780797  0.66397223  0.00147019    -0.52600
C1312       C  0.17385471  0.65544748  0.00255293     0.73200
Zr1313     Zr  0.25137708  0.74647607  0.50330296     2.54700
O1314       O  0.27264577  0.71828897  0.96478637    -0.80000
O1315       O  0.27676588  0.72805690  0.54557101    -0.93400
Zr1316     Zr  0.21386221  0.78616866  0.93675211     2.64700
O1317       O  0.23791150  0.76515850  0.89493852    -0.98400
O1318       O  0.18676826  0.81263867  0.90258163    -0.80500
O1319       O  0.26439310  0.79741016  0.96894783    -0.83800
O1320       O  0.20197789  0.73508250  0.96883089    -2.18500
O1321       O  0.16413573  0.72821049  0.58502072    -0.67200
O1322       O  0.12208512  0.69134128  0.54898426    -0.51800
C1323       C  0.13451326  0.69800783  0.57644284     0.71600
O1324       O  0.21654209  0.89590349  0.99698447    -0.60100
O1325       O  0.27744647  0.90877273  0.99728285    -0.52100
C1326       C  0.25341309  0.91822800  0.49724125     0.73400
O1327       O  0.10403484  0.78414113  0.99661253    -0.71500
O1328       O  0.09127372  0.72324644  0.99717798    -0.50200
C1329       C  0.08146020  0.74801164  0.49535635     0.74700
O1330       O  0.26810618  0.84004239  0.58580551    -0.66800
O1331       O  0.30734150  0.87719096  0.54817199    -0.54000
C1332       C  0.29884974  0.86822220  0.57629139     0.73100
Zr1333     Zr  0.21115439  0.78851349  0.56461091     2.77500
O1334       O  0.17924296  0.81476564  0.59358198    -0.97600
O1335       O  0.23024697  0.77520358  0.61318897    -0.78400
Zr1336     Zr  0.17307959  0.82698334  0.99786009     2.70100
O1337       O  0.14877951  0.84827599  0.54115217    -0.79700
O1338       O  0.14990147  0.84723349  0.95525582    -0.98700
Zr1339     Zr  0.27585660  0.84936855  0.00009195     2.21500
Zr1340     Zr  0.15028143  0.72432100  0.00010295     2.11100
O1341       O  0.15956348  0.77542542  0.53304191    -2.47400
O1342       O  0.22479751  0.83981925  0.53242696    -0.79500
O1343       O  0.20036224  0.73586268  0.53485781    -0.71600
O1344       O  0.22547194  0.83850994  0.96696674    -2.32600
O1345       O  0.26340650  0.79790558  0.53474768    -2.28800
O1346       O  0.16142151  0.77466178  0.96686837    -0.73400
H1347       H  0.19656955  0.71323310  0.95684162     0.78600
H1348       H  0.23253251  0.85987913  0.95387981     0.79700
H1349       H  0.13758479  0.76888139  0.54524925     0.81900
H1350       H  0.28482643  0.80372725  0.54734235     0.79500
H1351       H  0.17771604  0.79529125  0.88495168     0.42500
H1352       H  0.13958264  0.86201024  0.96473065     0.41500
H1353       H  0.17123790  0.86959769  0.55049090     0.41200
H1354       H  0.18034870  0.80774870  0.61493030     0.39100
H1355       H  0.24385314  0.76186932  0.60768346     0.42300
H1356       H  0.27392509  0.70361579  0.53931714     0.37000
H1357       H  0.27743869  0.73368982  0.94624680     0.43200
H1358       H  0.23331575  0.74009823  0.90124549     0.39600
H1359       H  0.19659858  0.84226011  0.59290278     0.44500
H1360       H  0.25826699  0.72170682  0.56219131     0.43200
H1361       H  0.22044206  0.76008124  0.87779827     0.43400
H1362       H  0.17270861  0.86606105  0.94439210     0.43700
O1363       O  0.56907017  0.83746192  0.91435599    -0.75200
O1364       O  0.57290683  0.87870992  0.95057826    -0.54100
C1365       C  0.56957653  0.86764549  0.92270116     0.78600
O1366       O  0.47204656  0.68067119  0.50741834    -0.59800
O1367       O  0.51549021  0.66304647  0.00138426    -0.52800
C1368       C  0.48144189  0.65535913  0.00574510     0.70600
O1369       O  0.47179316  0.78878151  0.49496433    -0.74300
O1370       O  0.51690480  0.85074119  0.49767399    -0.54900
C1371       C  0.48107284  0.82408038  0.99462046     0.76600
O1372       O  0.57445825  0.73185085  0.91350186    -0.59500
O1373       O  0.57019893  0.69192742  0.95145410    -0.52600
C1374       C  0.57078284  0.70080542  0.92332996     0.73200
Zr1375     Zr  0.57654768  0.78714070  0.93533565     2.54700
O1376       O  0.53523337  0.76498596  0.89128304    -0.80000
O1377       O  0.63139278  0.81758788  0.90227096    -0.93400
Zr1378     Zr  0.49813794  0.74788017  0.50059929     2.64700
O1379       O  0.45003822  0.71704872  0.95749019    -0.98400
O1380       O  0.45300018  0.73113548  0.54186164    -0.80500
O1381       O  0.53536999  0.79813792  0.96579713    -0.83800
O1382       O  0.53497822  0.73510904  0.96600594    -2.18500
O1383       O  0.68044456  0.78375111  0.99802532    -0.67200
O1384       O  0.63225672  0.72291554  0.00086019    -0.51800
C1385       C  0.66994748  0.74935257  0.50013259     0.71600
O1386       O  0.57248422  0.84065878  0.58361700    -0.60100
O1387       O  0.57078259  0.87841959  0.54662152    -0.52100
C1388       C  0.56905959  0.86850705  0.57468637     0.73400
O1389       O  0.56806734  0.73044352  0.58392402    -0.71500
O1390       O  0.56998527  0.69176478  0.54778129    -0.50200
C1391       C  0.56590512  0.69949159  0.57541512     0.74700
O1392       O  0.68117001  0.89506771  0.00096564    -0.66800
O1393       O  0.63330648  0.90815209  0.00175059    -0.54000
C1394       C  0.66935263  0.91897804  0.50149221     0.73100
Zr1395     Zr  0.65412132  0.82621120  0.99894950     2.77500
O1396       O  0.70105532  0.84875517  0.54038083    -0.97600
O1397       O  0.70156146  0.85215267  0.95906717    -0.78400
Zr1398     Zr  0.57844416  0.78937050  0.56278944     2.70100
O1399       O  0.63355609  0.81609325  0.59538252    -0.79700
O1400       O  0.53711565  0.77247627  0.60689719    -0.98700
Zr1401     Zr  0.57419636  0.84954943  0.99838051     2.21500
Zr1402     Zr  0.57374438  0.72335673  0.99913702     2.11100
O1403       O  0.61735010  0.77620054  0.53163181    -2.47400
O1404       O  0.61737236  0.84053626  0.53083794    -0.79500
O1405       O  0.61524026  0.77431667  0.96695236    -0.71600
O1406       O  0.53707204  0.79935935  0.53202319    -2.32600
O1407       O  0.61548590  0.83901103  0.96673196    -2.28800
O1408       O  0.53764911  0.73699260  0.53260331    -0.73400
H1409       H  0.51932524  0.71344416  0.95354746     0.78600
H1410       H  0.52110005  0.80502825  0.54436636     0.79700
H1411       H  0.63248561  0.76989294  0.54434144     0.81900
H1412       H  0.63084307  0.86081767  0.95433490     0.79500
H1413       H  0.46124719  0.71938083  0.55734362     0.42500
H1414       H  0.51455246  0.74847466  0.60122592     0.41500
H1415       H  0.62339148  0.80821129  0.61619624     0.41200
H1416       H  0.72452573  0.86915624  0.53141039     0.39100
H1417       H  0.69075165  0.83397403  0.94207566     0.42300
H1418       H  0.63578498  0.84330688  0.89906202     0.37000
H1419       H  0.51357744  0.74072673  0.89775951     0.43200
H1420       H  0.43385787  0.72845101  0.95860469     0.39600
H1421       H  0.69249866  0.86176918  0.55446889     0.44500
H1422       H  0.62243566  0.80501697  0.88231980     0.43200
H1423       H  0.46452035  0.72706167  0.93843174     0.43400
H1424       H  0.54934774  0.76574629  0.62308921     0.43700
O1425       O  0.21216619  0.53084394  0.49650557    -0.75200
O1426       O  0.15046552  0.48475448  0.49789232    -0.54100
C1427       C  0.17505342  0.51796517  0.99921826     0.78600
O1428       O  0.26538271  0.42329589  0.91640968    -0.59800
O1429       O  0.30557518  0.42538431  0.95272252    -0.52800
C1430       C  0.29660506  0.42614522  0.92477889     0.70600
O1431       O  0.15872351  0.42738731  0.91770535    -0.74300
O1432       O  0.12006500  0.42747159  0.95467305    -0.54900
C1433       C  0.13000301  0.42936818  0.92665321     0.76600
O1434       O  0.32039199  0.52936683  0.50324293    -0.59500
O1435       O  0.33488884  0.48249277  0.00139088    -0.52600
C1436       C  0.34295180  0.51705571  0.00287115     0.73200
Zr1437     Zr  0.25290286  0.50397319  0.49833259     2.54700
O1438       O  0.27553600  0.54666303  0.95590777    -0.80000
O1439       O  0.27545234  0.55482900  0.53538910    -0.93400
Zr1440     Zr  0.20859526  0.41823394  0.93791671     2.64700
O1441       O  0.22296572  0.45199412  0.88979826    -0.98400
O1442       O  0.17830297  0.35986775  0.90890864    -0.80500
O1443       O  0.19951429  0.46150298  0.96722561    -0.83800
O1444       O  0.26180320  0.46134252  0.96683092    -2.18500
O1445       O  0.27454947  0.44564861  0.58346526    -0.67200
O1446       O  0.30987482  0.43666478  0.54826630    -0.51800
C1447       C  0.30459148  0.44591796  0.57511060     0.71600
O1448       O  0.10251402  0.31769838  0.00676635    -0.60100
O1449       O  0.09054954  0.36633146  0.00557324    -0.52100
C1450       C  0.08094020  0.33251934  0.50450773     0.73400
O1451       O  0.21298401  0.31634666  0.00424179    -0.71500
O1452       O  0.27392811  0.36453785  0.00337472    -0.50200
C1453       C  0.25152303  0.33256626  0.50187063     0.74700
O1454       O  0.16222881  0.43385668  0.58355405    -0.66800
O1455       O  0.12294105  0.43234997  0.54665008    -0.54000
C1456       C  0.13344193  0.43549690  0.57454938     0.73100
Zr1457     Zr  0.21251018  0.42556894  0.56323078     2.77500
O1458       O  0.18806876  0.36701129  0.59144688    -0.97600
O1459       O  0.22247384  0.45317083  0.61383658    -0.78400
Zr1460     Zr  0.17138073  0.34369260  0.00403623     2.70100
O1461       O  0.15082781  0.30005761  0.54270075    -0.79700
O1462       O  0.14775389  0.29661827  0.96380529    -0.98700
Zr1463     Zr  0.14970549  0.42449011  0.00134232     2.21500
Zr1464     Zr  0.27474345  0.42379159  0.00058113     2.11100
O1465       O  0.22483548  0.38527368  0.53303211    -2.47400
O1466       O  0.16056724  0.38539348  0.53263093    -0.79500
O1467       O  0.26405225  0.46591045  0.53191166    -0.71600
O1468       O  0.15779354  0.38096426  0.97071577    -2.32600
O1469       O  0.20245659  0.46634999  0.53155718    -2.28800
O1470       O  0.22218603  0.38087324  0.97049430    -0.73400
H1471       H  0.28296650  0.47659208  0.95378909     0.78600
H1472       H  0.13552402  0.36539590  0.95890085     0.79700
H1473       H  0.23173756  0.37072052  0.54589952     0.81900
H1474       H  0.19723331  0.48286533  0.54359956     0.79500
H1475       H  0.19844891  0.36091010  0.89587881     0.42500
H1476       H  0.13226130  0.27250022  0.97454984     0.41500
H1477       H  0.13956763  0.27527762  0.53248505     0.41200
H1478       H  0.19045892  0.37459322  0.61309551     0.39100
H1479       H  0.22655423  0.47875079  0.61043833     0.42300
H1480       H  0.29755498  0.57617233  0.52566605     0.37000
H1481       H  0.25975088  0.53244542  0.93832894     0.43200
H1482       H  0.24966257  0.47184443  0.89126048     0.39600
H1483       H  0.16072274  0.35362576  0.58757153     0.44500
H1484       H  0.28599926  0.54682742  0.55206647     0.43200
H1485       H  0.22246531  0.43411499  0.87441117     0.43400
H1486       H  0.12941763  0.30090302  0.95261161     0.43700
O1487       O  0.43080518  0.16420510  0.91525934    -0.75200
O1488       O  0.42795212  0.12285458  0.95077702    -0.54100
C1489       C  0.43072944  0.13416043  0.92303808     0.78600
O1490       O  0.52876265  0.31845979  0.00894018    -0.59800
O1491       O  0.48387169  0.33532158  0.00573039    -0.52800
C1492       C  0.51803655  0.34293879  0.00904933     0.70600
O1493       O  0.52867720  0.20956063  0.49659225    -0.74300
O1494       O  0.48272213  0.14789899  0.49863558    -0.54900
C1495       C  0.51781206  0.17431315  0.99662373     0.76600
O1496       O  0.42736693  0.27017363  0.91774691    -0.59500
O1497       O  0.42909310  0.30857750  0.95598927    -0.52600
C1498       C  0.42935539  0.30051288  0.92765422     0.73200
Zr1499     Zr  0.42545152  0.21466420  0.93830022     2.54700
O1500       O  0.47407239  0.24136032  0.89938838    -0.80000
O1501       O  0.37577571  0.18940495  0.90037565    -0.93400
Zr1502     Zr  0.50298409  0.25117784  0.50176961     2.64700
O1503       O  0.55453236  0.28233866  0.96642751    -0.98400
O1504       O  0.55145867  0.26879599  0.54017880    -0.80500
O1505       O  0.46511406  0.20192830  0.96874250    -0.83800
O1506       O  0.46578114  0.26513269  0.97040745    -2.18500
O1507       O  0.31866712  0.21462846  0.00072917    -0.67200
O1508       O  0.36660967  0.27548079  0.00455333    -0.51800
C1509       C  0.33289121  0.25229474  0.50119240     0.71600
O1510       O  0.42484683  0.15710958  0.58553846    -0.60100
O1511       O  0.42819402  0.12129419  0.54715493    -0.52100
C1512       C  0.42804243  0.12945103  0.57541686     0.73400
O1513       O  0.43072078  0.26932132  0.58599859    -0.71500
O1514       O  0.43207002  0.30879073  0.54894858    -0.50200
C1515       C  0.43387545  0.30045517  0.57681119     0.74700
O1516       O  0.31842441  0.10335544  0.99991942    -0.66800
O1517       O  0.36646052  0.09059504  0.99812905    -0.54000
C1518       C  0.33170949  0.08071831  0.49809095     0.73100
Zr1519     Zr  0.34517782  0.17237981  0.00109268     2.77500
O1520       O  0.29813892  0.14795879  0.54084216    -0.97600
O1521       O  0.29634286  0.14776329  0.96247060    -0.78400
Zr1522     Zr  0.42202696  0.21055440  0.56471889     2.70100
O1523       O  0.36586774  0.18490100  0.59624218    -0.79700
O1524       O  0.46113851  0.22779496  0.61012580    -0.98700
Zr1525     Zr  0.42500407  0.14951079  0.99966468     2.21500
Zr1526     Zr  0.42534584  0.27528394  0.00285992     2.11100
O1527       O  0.38378017  0.22399897  0.53320179    -2.47400
O1528       O  0.38322750  0.15938098  0.53245975    -0.79500
O1529       O  0.38486258  0.22505051  0.96989356    -0.71600
O1530       O  0.46348703  0.20029560  0.53366717    -2.32600
O1531       O  0.38503730  0.16175552  0.96825933    -2.28800
O1532       O  0.46373720  0.26247032  0.53425408    -0.73400
H1533       H  0.48181615  0.28722283  0.95852617     0.78600
H1534       H  0.47902368  0.19416377  0.54603924     0.79700
H1535       H  0.36868947  0.23063547  0.54577161     0.81900
H1536       H  0.37007533  0.14058674  0.95511904     0.79500
H1537       H  0.57437740  0.28955694  0.53083613     0.42500
H1538       H  0.48098253  0.25427214  0.60697485     0.41500
H1539       H  0.35893732  0.15842125  0.59972519     0.41200
H1540       H  0.27560344  0.12712106  0.53114542     0.39100
H1541       H  0.30988870  0.15790273  0.94306165     0.42300
H1542       H  0.35844663  0.19810254  0.90708688     0.37000
H1543       H  0.49605949  0.24178233  0.90884817     0.43200
H1544       H  0.57672493  0.28482588  0.97723096     0.39600
H1545       H  0.30708460  0.13535735  0.55489041     0.44500
H1546       H  0.36177739  0.16195489  0.90397697     0.43200
H1547       H  0.54911440  0.26323897  0.95047669     0.43400
H1548       H  0.44526392  0.22874975  0.62667654     0.43700
C1549       C  0.26620634  0.30622252  0.50405223     0.00000
C1550       C  0.25432569  0.27405759  0.98635294    -0.11900
C1551       C  0.27446112  0.25455211  0.98543841     0.02200
C1552       C  0.30648910  0.26695070  0.50280183    -0.00100
C1553       C  0.31028892  0.29055724  0.52729397    -0.11800
C1554       C  0.29036798  0.30985422  0.52818772     0.02100
H1555       H  0.23273908  0.26789310  0.96957660     0.15100
H1556       H  0.32972142  0.29468292  0.54551662     0.15100
C1557       C  0.29549111  0.33372230  0.55406205     0.36700
C1558       C  0.26500799  0.22595429  0.96256090     0.36600
N1559       N  0.29928253  0.35270522  0.57479923    -0.43600
N1560       N  0.25736536  0.20287768  0.94432724    -0.43600
C1561       C  0.38244756  0.54711335  0.00701879     0.00000
C1562       C  0.39360273  0.57097940  0.53240655    -0.11900
C1563       C  0.42756848  0.60497405  0.53405094     0.02200
C1564       C  0.45138695  0.61562952  0.00980226    -0.00100
C1565       C  0.44523041  0.58896224  0.98713686    -0.11800
C1566       C  0.41066555  0.55516984  0.98517996     0.02100
H1567       H  0.37341431  0.56317907  0.55080535     0.15100
H1568       H  0.46617286  0.59572080  0.96961903     0.15100
C1569       C  0.40344398  0.53144980  0.95889160     0.36700
C1570       C  0.43508133  0.62808339  0.56085312     0.36600
N1571       N  0.39776321  0.51285667  0.93753716    -0.43600
N1572       N  0.44090509  0.64631907  0.58247155    -0.43600
C1573       C  0.26852043  0.95948017  0.49410724     0.00000
C1574       C  0.25590093  0.97838870  0.51325444    -0.11900
C1575       C  0.27432304  0.01807812  0.51384410     0.02200
C1576       C  0.30594832  0.03938786  0.49503939    -0.00100
C1577       C  0.31258388  0.02044041  0.97240130    -0.11800
C1578       C  0.29368185  0.98119952  0.97118711     0.02100
H1579       H  0.23291583  0.96227594  0.52886410     0.15100
H1580       H  0.33407664  0.03644621  0.95557159     0.15100
C1581       C  0.30221646  0.96370434  0.94632082     0.36700
C1582       C  0.26180906  0.03602599  0.53533140     0.36600
N1583       N  0.30919048  0.95032186  0.92599974    -0.43600
N1584       N  0.25146306  0.05007015  0.55267446    -0.43600
C1585       C  0.16339265  0.61550846  0.00231839     0.00000
C1586       C  0.16212466  0.59869290  0.97421157    -0.11900
C1587       C  0.16324786  0.56520686  0.97273366     0.02200
C1588       C  0.16474083  0.54758861  0.99976916    -0.00100
C1589       C  0.16294209  0.56284520  0.02794545    -0.11800
C1590       C  0.16265119  0.59682485  0.02939711     0.02100
H1591       H  0.16317810  0.61324761  0.95334679     0.15100
H1592       H  0.16443287  0.54961417  0.04880926     0.15100
C1593       C  0.17199127  0.61507594  0.55945675     0.36700
C1594       C  0.16595093  0.55117683  0.94324998     0.36600
N1595       N  0.17562589  0.62841250  0.58332867    -0.43600
N1596       N  0.16843969  0.54034241  0.91951907    -0.43600
C1597       C  0.45097913  0.83362211  0.99255006     0.00000
C1598       C  0.42711766  0.82050808  0.96719740    -0.11900
C1599       C  0.39312510  0.82043927  0.96710999     0.02200
C1600       C  0.38243900  0.83355385  0.99276549    -0.00100
C1601       C  0.40941563  0.85112777  0.51534924    -0.11800
C1602       C  0.44407051  0.85206702  0.51535601     0.02100
H1603       H  0.43414546  0.80842533  0.94807861     0.15100
H1604       H  0.40220125  0.86337437  0.53422142     0.15100
C1605       C  0.46929306  0.86971875  0.54053353     0.36700
C1606       C  0.36871793  0.80528790  0.94100880     0.36600
N1607       N  0.48940730  0.88392959  0.56079580    -0.43600
N1608       N  0.34896424  0.79331861  0.92021784    -0.43600
C1609       C  0.73357737  0.03967946  0.50594993     0.00000
C1610       C  0.74243158  0.01990533  0.98510194    -0.11900
C1611       C  0.72292944  0.98024474  0.98362663     0.02200
C1612       C  0.69573845  0.95999702  0.50438057    -0.00100
C1613       C  0.68941991  0.97896324  0.52814320    -0.11800
C1614       C  0.70795821  0.01822777  0.52915368     0.02100
H1615       H  0.76244651  0.03608064  0.96740736     0.15100
H1616       H  0.66886528  0.96287501  0.54555868     0.15100
C1617       C  0.69977246  0.03565349  0.55427041     0.36700
C1618       C  0.72946831  0.96224377  0.95798852     0.36600
N1619       N  0.69292455  0.04886651  0.57478733    -0.43600
N1620       N  0.73448938  0.94790227  0.93724756    -0.43600
C1621       C  0.95969780  0.26606406  0.50416718    -0.02700
C1622       C  0.97875356  0.29163241  0.52776331    -0.11900
C1623       C  0.01802912  0.31129028  0.52938621     0.02200
C1624       C  0.03959260  0.30602448  0.50687634    -0.00100
C1625       C  0.01964156  0.27522585  0.98971451    -0.11800
C1626       C  0.98003602  0.25545313  0.98826747     0.02100
H1627       H  0.96279126  0.29708480  0.54465791     0.15100
H1628       H  0.03555187  0.26865910  0.97363540     0.15100
C1629       C  0.96154328  0.22674575  0.96538279     0.36700
C1630       C  0.03547444  0.33697012  0.55447190     0.36600
N1631       N  0.94641927  0.20372694  0.94706999    -0.43600
N1632       N  0.04896287  0.35719057  0.57485958    -0.43600
C1633       C  0.61521728  0.16271040  0.99606193     0.00000
C1634       C  0.59836988  0.16291607  0.96838076    -0.11900
C1635       C  0.56462542  0.16358766  0.96794284     0.02200
C1636       C  0.54732268  0.16400987  0.99557133    -0.00100
C1637       C  0.55944070  0.15426563  0.51931171    -0.11800
C1638       C  0.59394558  0.15512572  0.51914722     0.02100
H1639       H  0.61277041  0.16489023  0.94715959     0.15100
H1640       H  0.54394240  0.14895936  0.54045080     0.15100
C1641       C  0.60827824  0.15006441  0.54756486     0.36700
C1642       C  0.54957972  0.16632023  0.93903348     0.36600
N1643       N  0.61999671  0.14671894  0.57049495    -0.43600
N1644       N  0.53761939  0.16854614  0.91582843    -0.43600
C1645       C  0.96085395  0.69425394  0.49303997     0.00000
C1646       C  0.97975836  0.68494150  0.97285204    -0.11900
C1647       C  0.01890256  0.70416615  0.97177244     0.02200
C1648       C  0.04050188  0.73334341  0.49148640    -0.00100
C1649       C  0.02131103  0.74562349  0.51063877    -0.11800
C1650       C  0.98168617  0.72632561  0.51154152     0.02100
H1651       H  0.96409305  0.66189267  0.95711754     0.15100
H1652       H  0.03715659  0.76877197  0.52619285     0.15100
C1653       C  0.96326738  0.73818154  0.53315390     0.36700
C1654       C  0.03644793  0.69297529  0.94877944     0.36600
N1655       N  0.94850538  0.74769470  0.55051273    -0.43600
N1656       N  0.04971869  0.68355199  0.93001803    -0.43600
C1657       C  0.69667813  0.73517360  0.50267719     0.00000
C1658       C  0.69096991  0.71027950  0.52655419    -0.11900
C1659       C  0.71081771  0.69098738  0.52797356     0.02200
C1660       C  0.73656428  0.69561960  0.50476026    -0.00100
C1661       C  0.74453573  0.72381932  0.98363870    -0.11800
C1662       C  0.72464406  0.74360291  0.98272364     0.02100
H1663       H  0.67019182  0.70525791  0.54392010     0.15100
H1664       H  0.76666917  0.73031020  0.96723618     0.15100
C1665       C  0.73463585  0.77259280  0.96021239     0.36700
C1666       C  0.70420900  0.66647613  0.55360173     0.36600
N1667       N  0.74234217  0.79597251  0.94232926    -0.43600
N1668       N  0.69910511  0.64721750  0.57435263    -0.43600
C1669       C  0.83269356  0.45014069  0.99010028     0.00000
C1670       C  0.81772226  0.42616897  0.96489061    -0.11900
C1671       C  0.81790555  0.39230279  0.96349344     0.02200
C1672       C  0.83264196  0.38157972  0.98792348    -0.00100
C1673       C  0.84922156  0.40673389  0.51450919    -0.11800
C1674       C  0.84946851  0.44097403  0.51538708     0.02100
H1675       H  0.80430839  0.43314613  0.94688840     0.15100
H1676       H  0.85859226  0.39778376  0.53417252     0.15100
C1677       C  0.86174677  0.46297301  0.54288864     0.36700
C1678       C  0.80189249  0.36840813  0.93715197     0.36600
N1679       N  0.87119551  0.47995162  0.56531091    -0.43600
N1680       N  0.78937188  0.34933625  0.91598485    -0.43600
C1681       C  0.54819406  0.38242346  0.01320882     0.00000
C1682       C  0.55428532  0.40930242  0.99089887    -0.11900
C1683       C  0.58850349  0.44352958  0.98962501     0.02200
C1684       C  0.61674827  0.45136328  0.01133032    -0.00100
C1685       C  0.60940795  0.42611172  0.53531840    -0.11800
C1686       C  0.57550338  0.39199441  0.53615105     0.02100
H1687       H  0.53380517  0.40222481  0.97293068     0.15100
H1688       H  0.63032648  0.43213892  0.55271721     0.15100
C1689       C  0.56874208  0.36655449  0.56112786     0.36700
C1690       C  0.59550552  0.46788808  0.96393104     0.36600
N1691       N  0.56310010  0.34611220  0.58111973    -0.43600
N1692       N  0.60103648  0.48706813  0.94307088    -0.43600
C1693       C  0.46418570  0.38256078  0.64749825     0.00000
C1694       C  0.43003749  0.34855378  0.64923732    -0.11900
C1695       C  0.41897858  0.32185646  0.62593065     0.02200
C1696       C  0.44205398  0.32929613  0.60012999    -0.00100
C1697       C  0.47580669  0.36360653  0.59801713    -0.11800
C1698       C  0.48726616  0.39000877  0.62160508     0.02100
H1699       H  0.41189035  0.34287875  0.66883258     0.15100
H1700       H  0.49408109  0.36900132  0.57854325     0.15100
C1701       C  0.52400866  0.42304101  0.61970375     0.36700
C1702       C  0.38369404  0.28722270  0.62887130     0.36600
N1703       N  0.55379434  0.44903880  0.61824993    -0.43600
N1704       N  0.35537550  0.25951319  0.63138503    -0.43600
C1705       C  0.43497951  0.32885937  0.90441112     0.00000
C1706       C  0.46294261  0.36623333  0.90936018    -0.11900
C1707       C  0.47473344  0.39277886  0.88591224     0.02200
C1708       C  0.45746631  0.38244693  0.85688043    -0.00100
C1709       C  0.42837592  0.34527498  0.85238918    -0.11800
C1710       C  0.41725588  0.31853397  0.87567819     0.02100
H1711       H  0.47739238  0.37419758  0.93106970     0.15100
H1712       H  0.41440727  0.33692820  0.83051294     0.15100
C1713       C  0.38769777  0.28061723  0.86941044     0.36700
C1714       C  0.50667845  0.42943074  0.89181322     0.36600
N1715       N  0.36411079  0.25022926  0.86428582    -0.43600
N1716       N  0.53254984  0.45859215  0.89664074    -0.43600
C1717       C  0.61880125  0.53950709  0.64704765     0.00000
C1718       C  0.65583056  0.55055561  0.65502867    -0.11900
C1719       C  0.68379386  0.56094971  0.63307976     0.02200
C1720       C  0.67502775  0.55998541  0.60170846    -0.00100
C1721       C  0.63836658  0.55057517  0.59372229    -0.11800
C1722       C  0.61042739  0.54066854  0.61582273     0.02100
H1723       H  0.66328219  0.55098810  0.67874453     0.15100
H1724       H  0.63109605  0.55011139  0.56995673     0.15100
C1725       C  0.57355020  0.53127816  0.60521674     0.36700
C1726       C  0.72104994  0.57265561  0.64420291     0.36600
N1727       N  0.54401153  0.52348693  0.59654167    -0.43600
N1728       N  0.75052236  0.58188490  0.65388231    -0.43600
C1729       C  0.67611635  0.57183280  0.90036910     0.00000
C1730       C  0.63981703  0.56422070  0.90810291    -0.11900
C1731       C  0.61197180  0.55424640  0.88579741     0.02200
C1732       C  0.61971752  0.55013698  0.85497607    -0.00100
C1733       C  0.65689772  0.56140359  0.84702553    -0.11800
C1734       C  0.68507816  0.57327362  0.86895163     0.02100
H1735       H  0.63277769  0.56525666  0.93174560     0.15100
H1736       H  0.66429954  0.56089851  0.82338811     0.15100
C1737       C  0.72290836  0.58775198  0.85784410     0.36700
C1738       C  0.57627443  0.54952053  0.89528219     0.36600
N1739       N  0.75299598  0.59979913  0.84832066    -0.43600
N1740       N  0.54780071  0.54612159  0.90283921    -0.43600
C1741       C  0.53574580  0.61741308  0.64703785     0.00000
C1742       C  0.55378957  0.61480106  0.62070685    -0.11900
C1743       C  0.56416337  0.64100827  0.59703946     0.02200
C1744       C  0.55632339  0.67068351  0.59946077    -0.00100
C1745       C  0.53771523  0.67279130  0.62567369    -0.11800
C1746       C  0.52750121  0.64675030  0.64924946     0.02100
H1747       H  0.56075517  0.59274770  0.61896826     0.15100
H1748       H  0.53054646  0.69472226  0.62775170     0.15100
C1749       C  0.50766665  0.65044616  0.67497744     0.36700
C1750       C  0.58371746  0.63722092  0.57115609     0.36600
N1751       N  0.49183792  0.65374862  0.69547045    -0.43600
N1752       N  0.59930787  0.63409888  0.55039763    -0.43600
C1753       C  0.54591616  0.61892629  0.85396608     0.00000
C1754       C  0.51774145  0.61566029  0.87371544    -0.11900
C1755       C  0.52575375  0.64227288  0.89644098     0.02200
C1756       C  0.56283407  0.67183749  0.90049347    -0.00100
C1757       C  0.59128468  0.67513905  0.88095854    -0.11800
C1758       C  0.58305390  0.64887356  0.85759019     0.02100
H1759       H  0.48903367  0.59316744  0.87047353     0.15100
H1760       H  0.61969407  0.69834006  0.88379903     0.15100
C1761       C  0.61312106  0.65270630  0.83817567     0.36700
C1762       C  0.49494756  0.64073986  0.91339741     0.36600
N1763       N  0.63735146  0.65584570  0.82275557    -0.43600
N1764       N  0.47015828  0.64016984  0.92630731    -0.43600
C1765       C  0.38742748  0.47024549  0.64490674     0.00000
C1766       C  0.36261400  0.48402126  0.64759394    -0.11900
C1767       C  0.33717069  0.47857720  0.62442423     0.02200
C1768       C  0.33455809  0.45690839  0.59839075    -0.00100
C1769       C  0.36044011  0.44438624  0.59520113    -0.11800
C1770       C  0.38698740  0.45122459  0.61786370     0.02100
H1771       H  0.36388835  0.50019616  0.66757122     0.15100
H1772       H  0.35964358  0.42862424  0.57511763     0.15100
C1773       C  0.41267056  0.43755346  0.61273136     0.36700
C1774       C  0.31619829  0.49791087  0.62734963     0.36600
N1775       N  0.43316651  0.42667192  0.60780979    -0.43600
N1776       N  0.30030427  0.51431017  0.62990385    -0.43600
C1777       C  0.37928567  0.45810315  0.85289849     0.00000
C1778       C  0.38469231  0.44436187  0.88062717    -0.11900
C1779       C  0.35786698  0.43229117  0.90408584     0.02200
C1780       C  0.32455329  0.43378683  0.90007761    -0.00100
C1781       C  0.31884385  0.44639176  0.87191317    -0.11800
C1782       C  0.34565332  0.45884875  0.84876774     0.02100
H1783       H  0.41002860  0.44297081  0.88405995     0.15100
H1784       H  0.29380857  0.44820086  0.86813644     0.15100
C1785       C  0.33830185  0.47428450  0.82190534     0.36700
C1786       C  0.36563154  0.41879001  0.93185826     0.36600
N1787       N  0.33178252  0.48668895  0.80074186    -0.43600
N1788       N  0.37213348  0.40813757  0.95408919    -0.43600
C1789       C  0.92177978  0.54057204  0.64640462     0.00000
C1790       C  0.93685496  0.54634353  0.61675283    -0.11900
C1791       C  0.92256099  0.55819201  0.59293584     0.02200
C1792       C  0.89185161  0.56379992  0.59835679    -0.00100
C1793       C  0.87798145  0.55949465  0.62829030    -0.11800
C1794       C  0.89221198  0.54798421  0.65199326     0.02100
H1795       H  0.96002138  0.54164126  0.61202665     0.15100
H1796       H  0.85483081  0.56409910  0.63342473     0.15100
C1797       C  0.87463429  0.54327568  0.68144765     0.36700
C1798       C  0.93947717  0.56337633  0.56320265     0.36600
N1799       N  0.86025229  0.53981649  0.70483265    -0.43600
N1800       N  0.95275669  0.56732244  0.53927476    -0.43600
C1801       C  0.91759845  0.53538395  0.85379369     0.00000
C1802       C  0.87990744  0.50995536  0.86012330    -0.11900
C1803       C  0.86152903  0.51709250  0.88366978     0.02200
C1804       C  0.88130081  0.55005170  0.90138226    -0.00100
C1805       C  0.91930252  0.57506325  0.89543062    -0.11800
C1806       C  0.93744708  0.56815615  0.87148809     0.02100
H1807       H  0.86488225  0.48452109  0.84664531     0.15100
H1808       H  0.93433133  0.60068852  0.90867554     0.15100
C1809       C  0.97555494  0.59616164  0.86417524     0.36700
C1810       C  0.82256840  0.48996683  0.88941185     0.36600
N1811       N  0.00582005  0.61904047  0.85797323    -0.43600
N1812       N  0.79133443  0.46821439  0.89385123    -0.43600
C1813       C  0.91513649  0.38174647  0.64576926     0.00000
C1814       C  0.87683801  0.36702972  0.64039319    -0.11900
C1815       C  0.85942363  0.34336027  0.61549155     0.02200
C1816       C  0.88040566  0.33368374  0.59565308    -0.00100
C1817       C  0.91883713  0.34884368  0.60078650    -0.11800
C1818       C  0.93619028  0.37242058  0.62580616     0.02100
H1819       H  0.86066987  0.37458981  0.65536204     0.15100
H1820       H  0.93489435  0.34080554  0.58613249     0.15100
C1821       C  0.97479200  0.38393002  0.63195727     0.36700
C1822       C  0.82021467  0.33037435  0.61015298     0.36600
N1823       N  0.00544172  0.39194854  0.63694705    -0.43600
N1824       N  0.78888349  0.32022395  0.60574207    -0.43600
C1825       C  0.91874492  0.38078177  0.85406229     0.00000
C1826       C  0.91395298  0.34488150  0.84917707    -0.11900
C1827       C  0.89978781  0.31774571  0.87210553     0.02200
C1828       C  0.88978994  0.32625889  0.90045935    -0.00100
C1829       C  0.89518535  0.36233476  0.90562990    -0.11800
C1830       C  0.90945180  0.38958264  0.88275408     0.02100
H1831       H  0.92186714  0.33815568  0.82750299     0.15100
H1832       H  0.88677282  0.36877330  0.92721227     0.15100
C1833       C  0.91247230  0.42554661  0.88893952     0.36700
C1834       C  0.89695946  0.28184424  0.86634558     0.36600
N1835       N  0.91485591  0.45430892  0.89395369    -0.43600
N1836       N  0.89502470  0.25320818  0.86176582    -0.43600
C1837       C  0.08065531  0.46150381  0.64813061     0.00000
C1838       C  0.07902454  0.47299333  0.61824442    -0.11900
C1839       C  0.09387083  0.46308809  0.59354396     0.02200
C1840       C  0.11220769  0.44236589  0.59857302    -0.00100
C1841       C  0.11296415  0.43004521  0.62820062    -0.11800
C1842       C  0.09712345  0.43884162  0.65273050     0.02100
H1843       H  0.06579906  0.48963332  0.61396957     0.15100
H1844       H  0.12593305  0.41310513  0.63227314     0.15100
C1845       C  0.09711295  0.42264581  0.68184947     0.36700
C1846       C  0.08990175  0.47483816  0.56352328     0.36600
N1847       N  0.09728602  0.40916906  0.70488551    -0.43600
N1848       N  0.08601962  0.48387110  0.53951427    -0.43600
C1849       C  0.10802146  0.43575550  0.90289976     0.00000
C1850       C  0.08859231  0.45457417  0.91071018    -0.11900
C1851       C  0.07108386  0.46495937  0.88845657     0.02200
C1852       C  0.07276609  0.45649476  0.85727557    -0.00100
C1853       C  0.09083556  0.43619803  0.84986830    -0.11800
C1854       C  0.10813498  0.42577506  0.87205977     0.02100
H1855       H  0.08808360  0.46238275  0.93423822     0.15100
H1856       H  0.09170053  0.42835541  0.82642448     0.15100
C1857       C  0.12547627  0.40448896  0.86222594     0.36700
C1858       C  0.05234840  0.48478174  0.89863562     0.36600
N1859       N  0.13944821  0.38755497  0.85424352    -0.43600
N1860       N  0.03722781  0.50047229  0.90698656    -0.43600
C1861       C  0.08199693  0.61439749  0.64666051     0.00000
C1862       C  0.06047141  0.61429474  0.62187241    -0.11900
C1863       C  0.07649838  0.64121987  0.59872405     0.02200
C1864       C  0.11499003  0.66879523  0.60010563    -0.00100
C1865       C  0.13636160  0.66845299  0.62489420    -0.11800
C1866       C  0.12038557  0.64170000  0.64792005     0.02100
H1867       H  0.03078528  0.59366542  0.62097161     0.15100
H1868       H  0.16609874  0.68883268  0.62610817     0.15100
C1869       C  0.14458002  0.64203004  0.67179032     0.36700
C1870       C  0.05236250  0.64069910  0.57474479     0.36600
N1871       N  0.16427698  0.64241977  0.69068158    -0.43600
N1872       N  0.03285603  0.64024983  0.55565005    -0.43600
C1873       C  0.11338229  0.66966332  0.90127653     0.00000
C1874       C  0.11860125  0.68135308  0.87077458    -0.11900
C1875       C  0.10265516  0.65569315  0.84700902     0.02200
C1876       C  0.08036185  0.61678420  0.85341275    -0.00100
C1877       C  0.07439188  0.60514530  0.88403061    -0.11800
C1878       C  0.09063694  0.63097539  0.90784087     0.02100
H1879       H  0.13562459  0.71095967  0.86526165     0.15100
H1880       H  0.05721542  0.57560059  0.88955428     0.15100
C1881       C  0.08437120  0.61651472  0.93852233     0.36700
C1882       C  0.10985951  0.67085737  0.81651201     0.36600
N1883       N  0.07924467  0.60479861  0.96306748    -0.43600
N1884       N  0.11588138  0.68329219  0.79218953    -0.43600
C1885       C  0.32746942  0.88982837  0.59947770     0.00000
C1886       C  0.36468689  0.89962386  0.59337032    -0.11900
C1887       C  0.39206378  0.91493613  0.61604451     0.02200
C1888       C  0.38223793  0.92061712  0.64569840    -0.00100
C1889       C  0.34516841  0.91186804  0.65146116    -0.11800
C1890       C  0.31790948  0.89685420  0.62866652     0.02100
H1891       H  0.37214285  0.89389947  0.57109008     0.15100
H1892       H  0.33752329  0.91727788  0.67377079     0.15100
C1893       C  0.28070020  0.88999938  0.63561583     0.36700
C1894       C  0.42950634  0.92306964  0.60831843     0.36600
N1895       N  0.25104891  0.88486207  0.64130855    -0.43600
N1896       N  0.45945630  0.92966321  0.60187646    -0.43600
C1897       C  0.32973495  0.88734264  0.90099248     0.00000
C1898       C  0.36651744  0.89477497  0.90531913    -0.11900
C1899       C  0.39332794  0.91099457  0.88214732     0.02200
C1900       C  0.38379487  0.92127563  0.85431059    -0.00100
C1901       C  0.34712752  0.91449945  0.85029253    -0.11800
C1902       C  0.32008934  0.89742428  0.87316389     0.02100
H1903       H  0.37379350  0.88606995  0.92628569     0.15100
H1904       H  0.33950504  0.92253103  0.82916522     0.15100
C1905       C  0.28284101  0.89116223  0.86764286     0.36700
C1906       C  0.42928806  0.91377613  0.88669259     0.36600
N1907       N  0.25308648  0.88632225  0.86308937    -0.43600
N1908       N  0.45784393  0.91538409  0.89029984    -0.43600
C1909       C  0.53539672  0.91819015  0.64601986     0.00000
C1910       C  0.55424524  0.93961998  0.62021174    -0.11900
C1911       C  0.56639816  0.92488636  0.59683661     0.02200
C1912       C  0.55940179  0.88763840  0.59893342    -0.00100
C1913       C  0.54049409  0.86635635  0.62487584    -0.11800
C1914       C  0.52849416  0.88106057  0.64813257     0.02100
H1915       H  0.56042391  0.96842121  0.61867047     0.15100
H1916       H  0.53409331  0.83745891  0.62684266     0.15100
C1917       C  0.50792165  0.85669272  0.67323900     0.36700
C1918       C  0.58668903  0.94906198  0.57162207     0.36600
N1919       N  0.49141542  0.83685164  0.69317350    -0.43600
N1920       N  0.60292758  0.96891746  0.55162547    -0.43600
C1921       C  0.56471548  0.89025409  0.89842081     0.00000
C1922       C  0.55817910  0.91955092  0.90673446    -0.11900
C1923       C  0.54944744  0.93885290  0.88490451     0.02200
C1924       C  0.54637415  0.92849686  0.85373962    -0.00100
C1925       C  0.55518135  0.90084574  0.84538579    -0.11800
C1926       C  0.56447786  0.88206669  0.86696666     0.02100
H1927       H  0.55908854  0.92704478  0.93052576     0.15100
H1928       H  0.55416138  0.89303211  0.82166111     0.15100
C1929       C  0.57326298  0.85442196  0.85544382     0.36700
C1930       C  0.54392579  0.96898338  0.89556368     0.36600
N1931       N  0.58012870  0.83239296  0.84567847    -0.43600
N1932       N  0.53938256  0.99289064  0.90453266    -0.43600
C1933       C  0.61709478  0.07495643  0.64394300     0.00000
C1934       C  0.65463884  0.09952780  0.65186499    -0.11900
C1935       C  0.68249073  0.11659451  0.62982125     0.02200
C1936       C  0.67308927  0.10986448  0.59853526    -0.00100
C1937       C  0.63612095  0.08319805  0.59055536    -0.11800
C1938       C  0.60818890  0.06571203  0.61272442     0.02100
H1939       H  0.66257531  0.10601274  0.67557448     0.15100
H1940       H  0.62852119  0.07692199  0.56676556     0.15100
C1941       C  0.57084863  0.03918779  0.60221076     0.36700
C1942       C  0.72035950  0.14070729  0.64053820     0.36600
N1943       N  0.54101493  0.01813729  0.59351345    -0.43600
N1944       N  0.75055270  0.15996102  0.64939423    -0.43600
C1945       C  0.67329887  0.11054105  0.89947956     0.00000
C1946       C  0.63639662  0.10209002  0.90502596    -0.11900
C1947       C  0.60950142  0.08818836  0.88189299     0.02200
C1948       C  0.61908913  0.08152406  0.85244551    -0.00100
C1949       C  0.65603329  0.08957338  0.84703997    -0.11800
C1950       C  0.68306487  0.10400045  0.87012324     0.02100
H1951       H  0.62895586  0.10813211  0.92719739     0.15100
H1952       H  0.66380857  0.08420976  0.82476862     0.15100
C1953       C  0.72039113  0.11116155  0.86316805     0.36700
C1954       C  0.57305854  0.08326923  0.88886612     0.36600
N1955       N  0.75022896  0.11680899  0.85748949    -0.43600
N1956       N  0.54407734  0.07966268  0.89485837    -0.43600
C1957       C  0.43578745  0.10784407  0.59798669     0.00000
C1958       C  0.46911674  0.10686654  0.59474802    -0.11900
C1959       C  0.48165488  0.09260320  0.61787564     0.02200
C1960       C  0.46020743  0.07823717  0.64473131    -0.00100
C1961       C  0.42611343  0.07806167  0.64748070    -0.11800
C1962       C  0.41377490  0.09267964  0.62436548     0.02100
H1963       H  0.48647486  0.11918998  0.57472879     0.15100
H1964       H  0.40894997  0.06624867  0.66766622     0.15100
C1965       C  0.37800064  0.09076898  0.62776590     0.36700
C1966       C  0.51806082  0.09606705  0.61435825     0.36600
N1967       N  0.34910802  0.08877525  0.63046044    -0.43600
N1968       N  0.54758408  0.09970741  0.61129509    -0.43600
C1969       C  0.43555009  0.11205504  0.89823167     0.00000
C1970       C  0.44146879  0.08227198  0.90593049    -0.11900
C1971       C  0.45004159  0.06323586  0.88369124     0.02200
C1972       C  0.45401451  0.07465300  0.85282622    -0.00100
C1973       C  0.44602738  0.10292990  0.84497369    -0.11800
C1974       C  0.43632750  0.12112457  0.86694247     0.02100
H1975       H  0.43989679  0.07396647  0.92953470     0.15100
H1976       H  0.44778889  0.11145224  0.82140078     0.15100
C1977       C  0.42711832  0.14864233  0.85602615     0.36700
C1978       C  0.45371824  0.03173356  0.89347243     0.36600
N1979       N  0.41964426  0.17043180  0.84686334    -0.43600
N1980       N  0.45649271  0.00650230  0.90161799    -0.43600
loop_ 
_geom_bond_atom_site_label_1 
_geom_bond_atom_site_label_2 
_geom_bond_distance 
_geom_bond_site_symmetry_2 
_ccdc_geom_bond_type 
O1          Zr13   2.438       .  S
O1            C3   1.289       .  A
O2          Zr39   2.401   1_545  S
O2            C3   1.281       .  A
C3          C982   1.487       .  S
O4          Zr16   2.448       .  S
O4            C6   1.290       .  A
O5          Zr40   2.414       .  S
O5            C6   1.285       .  A
C6          C898   1.483       .  S
O7          Zr16   2.447       .  S
O7            C9   1.289       .  A
O8          Zr39   2.404       .  S
O8            C9   1.282       .  A
C9          C910   1.476       .  S
O10         Zr13   2.455       .  S
O10          C12   1.290       .  A
O11         Zr40   2.424   1_545  S
O11          C12   1.286       .  A
C12         C970   1.483       .  S
Zr13         O14   2.433       .  S
Zr13         O15   2.434       .  S
Zr13         O19   2.370   1_545  S
Zr13         O20   2.364   1_545  S
Zr13         O43   2.374       .  S
Zr13         O45   2.378       .  S
O14          H57   0.990       .  S
O15          H56   0.990       .  S
O15          H60   0.990       .  S
Zr16         O17   2.439       .  S
Zr16         O18   2.435       .  S
Zr16         O20   2.370       .  S
Zr16         O19   2.368       .  S
Zr16         O44   2.374       .  S
Zr16         O46   2.379       .  S
O17          H58   0.990       .  S
O17          H61   0.990       .  S
O18          H51   0.990       .  S
O19         Zr39   2.372       .  S
O20         Zr40   2.375       .  S
O20          H47   0.965       .  S
O21         Zr33   2.451       .  S
O21          C23   1.291       .  A
O22         Zr40   2.405   1_545  S
O22          C23   1.282       .  A
C23         C943   1.494       .  S
O24         Zr36   2.448       .  S
O24          C26   1.290       .  A
O25         Zr39   2.403       .  S
O25          C26   1.281       .  A
C26         C934   1.491       .  S
O27         Zr36   2.443       .  S
O27          C29   1.288       .  A
O28         Zr40   2.420       .  S
O28          C29   1.286       .  A
C29         C919   1.489       .  S
O30         Zr33   2.454       .  S
O30          C32   1.290       .  A
O31         Zr39   2.403   1_545  S
O31          C32   1.282       .  A
C32         C958   1.483       .  S
Zr33         O34   2.437       .  S
Zr33         O35   2.434       .  S
Zr33         O41   2.366   1_545  S
Zr33         O42   2.368   1_545  S
Zr33         O45   2.375       .  S
Zr33         O43   2.379       .  S
O34          H54   0.990       .  S
O34          H59   0.990       .  S
O35          H55   0.990       .  S
Zr36         O37   2.434       .  S
Zr36         O38   2.435       .  S
Zr36         O42   2.365       .  S
Zr36         O41   2.366       .  S
Zr36         O46   2.377       .  S
Zr36         O44   2.370       .  S
O37          H53   0.990       .  S
O38          H52   0.990       .  S
O38          H62   0.990       .  S
Zr39         O42   2.371       .  S
Zr39         O44   2.377       .  S
Zr39         O45   2.384   1_565  S
Zr40         O41   2.382       .  S
Zr40         O43   2.381   1_565  S
Zr40         O46   2.384       .  S
O41          H49   0.965       .  S
O44          H48   0.966       .  S
O45          H50   0.966       .  S
O63         Zr75   2.433       .  S
O63          C65   1.286       .  A
O64        Zr101   2.408   1_455  S
O64          C65   1.284       .  A
C65         C886   1.489       .  S
O66         Zr78   2.441       .  S
O66          C68   1.288       .  A
O67        Zr102   2.415   1_655  S
O67          C68   1.284       .  A
C68         C799   1.480       .  S
O69         Zr78   2.439       .  S
O69          C71   1.287       .  A
O70        Zr101   2.411       .  S
O70          C71   1.283       .  A
C71         C811   1.465       .  S
O72         Zr75   2.435       .  S
O72          C74   1.286       .  A
O73        Zr102   2.408       .  S
O73          C74   1.283       .  A
C74         C871   1.487       .  S
Zr75         O76   2.433       .  S
Zr75         O77   2.435       .  S
Zr75         O81   2.369   1_455  S
Zr75         O82   2.365       .  S
Zr75        O105   2.365       .  S
Zr75        O107   2.372       .  S
O76         H119   0.990       .  S
O77         H118   0.990       .  S
O77         H122   0.990       .  S
Zr78         O79   2.435       .  S
Zr78         O80   2.434       .  S
Zr78         O82   2.367   1_655  S
Zr78         O81   2.372       .  S
Zr78        O106   2.369       .  S
Zr78        O108   2.373       .  S
O79         H120   0.990       .  S
O79         H123   0.990       .  S
O80         H113   0.990       .  S
O81        Zr101   2.372       .  S
O82        Zr102   2.374       .  S
O82         H109   0.966       .  S
O83         Zr95   2.430       .  S
O83          C85   1.285       .  A
O84        Zr102   2.390       .  S
O84          C85   1.281       .  A
C85         C847   1.480       .  S
O86         Zr98   2.438       .  S
O86          C88   1.288       .  A
O87        Zr101   2.403       .  S
O87          C88   1.283       .  A
C88         C835   1.475       .  S
O89         Zr98   2.459       .  S
O89          C91   1.291       .  A
O90        Zr102   2.404   1_655  S
O90          C91   1.281       .  A
C91         C823   1.469       .  S
O92         Zr95   2.448       .  S
O92          C94   1.290       .  A
O93        Zr101   2.413   1_455  S
O93          C94   1.283       .  A
C94         C862   1.495       .  S
Zr95         O96   2.435       .  S
Zr95         O97   2.435       .  S
Zr95        O103   2.370   1_455  S
Zr95        O104   2.359   1_455  S
Zr95        O107   2.368       .  S
Zr95        O105   2.377       .  S
O96         H116   0.990       .  S
O96         H121   0.990       .  S
O97         H117   0.990       .  S
Zr98         O99   2.434       .  S
Zr98        O100   2.434       .  S
Zr98        O104   2.374       .  S
Zr98        O103   2.364       .  S
Zr98        O108   2.371       .  S
Zr98        O106   2.376       .  S
O99         H115   0.990       .  S
O100        H114   0.990       .  S
O100        H124   0.990       .  S
Zr101       O104   2.374       .  S
Zr101       O106   2.383       .  S
Zr101       O107   2.379   1_655  S
Zr102       O103   2.382   1_455  S
Zr102       O105   2.380       .  S
Zr102       O108   2.379   1_455  S
O103        H111   0.966       .  S
O106        H110   0.966       .  S
O107        H112   0.966       .  S
O125       Zr137   2.438       .  S
O125        C127   1.288       .  A
O126       Zr163   2.407       .  S
O126        C127   1.282       .  A
C127        C787   1.473       .  S
O128       Zr140   2.442       .  S
O128        C130   1.288       .  A
O129       Zr164   2.419       .  S
O129        C130   1.285       .  A
C130        C703   1.475       .  S
O131       Zr140   2.449       .  S
O131        C133   1.290       .  A
O132       Zr163   2.394       .  S
O132        C133   1.280       .  A
C133        C718   1.478       .  S
O134       Zr137   2.453       .  S
O134        C136   1.291       .  A
O135       Zr164   2.412       .  S
O135        C136   1.283       .  A
C136        C775   1.491       .  S
Zr137       O138   2.434       .  S
Zr137       O139   2.435       .  S
Zr137       O143   2.373       .  S
Zr137       O144   2.368       .  S
Zr137       O167   2.369       .  S
Zr137       O169   2.378       .  S
O138        H181   0.990       .  S
O139        H180   0.990       .  S
O139        H184   0.989       .  S
Zr140       O141   2.437       .  S
Zr140       O142   2.434       .  S
Zr140       O144   2.377       .  S
Zr140       O143   2.369       .  S
Zr140       O168   2.370       .  S
Zr140       O170   2.374       .  S
O141        H182   0.990       .  S
O141        H185   0.990       .  S
O142        H175   0.990       .  S
O143       Zr163   2.373       .  S
O144       Zr164   2.380       .  S
O144        H171   0.966       .  S
O145       Zr157   2.446       .  S
O145        C147   1.288       .  A
O146       Zr164   2.422       .  S
O146        C147   1.286       .  A
C147        C751   1.489       .  S
O148       Zr160   2.454       .  S
O148        C150   1.291       .  A
O149       Zr163   2.403       .  S
O149        C150   1.281       .  A
C150        C742   1.494       .  S
O151       Zr160   2.450       .  S
O151        C153   1.291       .  A
O152       Zr164   2.396       .  S
O152        C153   1.280       .  A
C153        C727   1.490       .  S
O154       Zr157   2.447       .  S
O154        C156   1.287       .  A
O155       Zr163   2.396       .  S
O155        C156   1.280       .  A
C156        C763   1.460       .  S
Zr157       O158   2.435       .  S
Zr157       O159   2.434       .  S
Zr157       O165   2.369       .  S
Zr157       O166   2.365       .  S
Zr157       O169   2.372       .  S
Zr157       O167   2.373       .  S
O158        H178   0.990       .  S
O158        H183   0.990       .  S
O159        H179   0.990       .  S
Zr160       O161   2.433       .  S
Zr160       O162   2.435       .  S
Zr160       O166   2.361       .  S
Zr160       O165   2.372       .  S
Zr160       O170   2.374       .  S
Zr160       O168   2.371       .  S
O161        H177   0.990       .  S
O162        H176   0.990       .  S
O162        H186   0.990       .  S
Zr163       O166   2.371       .  S
Zr163       O168   2.378       .  S
Zr163       O169   2.382       .  S
Zr164       O165   2.385       .  S
Zr164       O167   2.376       .  S
Zr164       O170   2.382       .  S
O165        H173   0.965       .  S
O168        H172   0.966       .  S
O169        H174   0.966       .  S
O187       Zr199   2.430   1_556  S
O187       C1179   1.286       .  A
O188      Zr1215   2.441       .  S
O188       C1179   1.289       .  A
C189       O1177   1.286       .  A
C189       O1178   1.288       .  A
C189        C679   1.476       .  S
O190       Zr202   2.420       .  S
O190        C192   1.283       .  A
O191       Zr226   2.449       .  S
O191        C192   1.292       .  A
C192        C739   1.496       .  S
O193       Zr202   2.423       .  S
O193        C195   1.284       .  A
O194       Zr225   2.426       .  S
O194        C195   1.286       .  A
C195        C814   1.469       .  S
O196       Zr199   2.432       .  S
O196       C1188   1.286       .  A
O197       Zr226   2.448       .  S
O197        C198   1.290       .  A
C198       O1186   1.286       .  A
C198        C694   1.482       .  S
Zr199       O201   2.436       .  S
Zr199      O1190   2.434   1_554  S
Zr199       O229   2.357       .  S
Zr199       O231   2.363       .  S
Zr199      O1195   2.360   1_554  S
Zr199      O1196   2.369   1_554  S
O200      Zr1189   2.435       .  S
O200        H243   0.990       .  S
O201        H242   0.990       .  S
O201        H246   0.990       .  S
Zr202       O203   2.437       .  S
Zr202       O204   2.435       .  S
Zr202       O206   2.374       .  S
Zr202       O205   2.361       .  S
Zr202       O230   2.366       .  S
Zr202       O232   2.366       .  S
O203        H244   0.990       .  S
O203        H247   0.989       .  S
O204        H237   0.990       .  S
O205       Zr225   2.373       .  S
O205      Zr1189   2.355       .  S
O206       Zr226   2.384       .  S
O206      Zr1189   2.370       .  S
O206        H233   0.966       .  S
O207       Zr219   2.404       .  S
O207        C209   1.280       .  A
O208      Zr1216   2.436       .  S
O208        C209   1.290       .  A
C209        C730   1.486       .  S
O210       Zr222   2.473       .  S
O210       C1202   1.294       .  A
O211       Zr225   2.416       .  S
O211       C1202   1.287       .  A
C212       O1200   1.294       .  A
C212       O1201   1.288       .  A
C212        C655   1.489       .  S
O213       Zr222   2.477       .  S
O213       C1205   1.295       .  A
O214       Zr226   2.415       .  S
O214       C1205   1.287       .  A
C215       O1203   1.297   1_554  A
C215       O1204   1.286       .  A
C215        C670   1.493       .  S
O216       Zr219   2.416       .  S
O216        C218   1.284       .  A
O217      Zr1215   2.439   1_554  S
O217        C218   1.288       .  A
C218        C802   1.485       .  S
Zr219       O220   2.435       .  S
Zr219       O221   2.434       .  S
Zr219       O227   2.365       .  S
Zr219       O228   2.359       .  S
Zr219       O231   2.367       .  S
Zr219       O229   2.370       .  S
O220        H240   0.990       .  S
O220        H245   0.990       .  S
O221        H241   0.990       .  S
Zr222       O224   2.435       .  S
Zr222      O1213   2.434       .  S
Zr222       O232   2.382       .  S
Zr222       O230   2.385       .  S
Zr222      O1218   2.381       .  S
Zr222      O1217   2.380       .  S
O223      Zr1212   2.435   1_554  S
O223        H239   0.990       .  S
O224        H238   0.990       .  S
O224        H248   0.990       .  S
Zr225      O1178   2.439       .  S
Zr225      O1207   2.436       .  S
Zr225       O230   2.393       .  S
Zr225      O1218   2.387       .  S
Zr225      O1221   2.382       .  S
Zr226      O1198   2.440       .  S
Zr226       O232   2.388       .  S
Zr226      O1217   2.395       .  S
Zr226      O1219   2.378       .  S
O227      Zr1212   2.381   1_554  S
O227      Zr1216   2.399       .  S
O227        H235   0.966       .  S
O228      Zr1212   2.385   1_554  S
O228      Zr1215   2.386   1_554  S
O229      Zr1216   2.376       .  S
O230        H234   0.966       .  S
O231      Zr1215   2.379   1_554  S
O231        H236   0.966       .  S
O249       Zr261   2.440       .  S
O249       C1241   1.287       .  A
O250      Zr1277   2.444       .  S
O250       C1241   1.289       .  A
C251       O1239   1.285       .  A
C251       O1240   1.290       .  A
C251        C643   1.479       .  S
O252       Zr264   2.432       .  S
O252        C254   1.286       .  A
O253       Zr288   2.421       .  S
O253        C254   1.287       .  A
C254        C838   1.471       .  S
O255       Zr264   2.435       .  S
O255        C257   1.287       .  A
O256       Zr287   2.415       .  S
O256        C257   1.285       .  A
C257        C955   1.474       .  S
O258       Zr261   2.430       .  S
O258       C1250   1.286       .  A
O259       Zr288   2.436       .  S
O259        C260   1.287       .  A
C260       O1248   1.286       .  A
C260        C682   1.471       .  S
Zr261       O263   2.435   1_556  S
Zr261      O1252   2.434       .  S
Zr261       O291   2.369   1_556  S
Zr261       O293   2.362   1_556  S
Zr261      O1257   2.362       .  S
Zr261      O1258   2.363       .  S
O262      Zr1251   2.434       .  S
O262        H305   0.990       .  S
O263        H304   0.990       .  S
O263        H308   0.990       .  S
Zr264       O265   2.437       .  S
Zr264       O266   2.434       .  S
Zr264       O268   2.368       .  S
Zr264       O267   2.368       .  S
Zr264       O292   2.370       .  S
Zr264       O294   2.375       .  S
O265        H306   0.990       .  S
O265        H309   0.990       .  S
O266        H299   0.990       .  S
O267       Zr287   2.375       .  S
O267      Zr1251   2.365       .  S
O268       Zr288   2.388       .  S
O268      Zr1251   2.360       .  S
O268        H295   0.965       .  S
O269       Zr281   2.428       .  S
O269        C271   1.284       .  A
O270      Zr1278   2.424   1_554  S
O270        C271   1.285       .  A
C271        C826   1.471       .  S
O272       Zr284   2.481       .  S
O272       C1264   1.295       .  A
O273       Zr287   2.418       .  S
O273       C1264   1.287       .  A
C274       O1262   1.296       .  A
C274       O1263   1.288       .  A
C274        C619   1.490       .  S
O275       Zr284   2.483       .  S
O275       C1267   1.296       .  A
O276       Zr288   2.427       .  S
O276       C1267   1.288       .  A
C277       O1265   1.294       .  A
C277       O1266   1.288       .  A
C277        C631   1.488       .  S
O278       Zr281   2.408       .  S
O278        C280   1.280       .  A
O279      Zr1277   2.451   1_554  S
O279        C280   1.293       .  A
C280        C946   1.491       .  S
Zr281       O282   2.434       .  S
Zr281       O283   2.433       .  S
Zr281       O289   2.358       .  S
Zr281       O290   2.371       .  S
Zr281       O293   2.373       .  S
Zr281       O291   2.362       .  S
O282        H302   0.990       .  S
O282        H307   0.990       .  S
O283        H303   0.990       .  S
Zr284       O286   2.436       .  S
Zr284      O1275   2.434       .  S
Zr284       O294   2.379       .  S
Zr284       O292   2.383       .  S
Zr284      O1280   2.383       .  S
Zr284      O1279   2.389       .  S
O285      Zr1274   2.434       .  S
O285        H301   0.990       .  S
O286        H300   0.990       .  S
O286        H310   0.990       .  S
Zr287      O1240   2.451       .  S
Zr287      O1269   2.423       .  S
Zr287       O292   2.398       .  S
Zr287      O1280   2.386       .  S
Zr287      O1283   2.376       .  S
Zr288      O1260   2.443       .  S
Zr288       O294   2.393       .  S
Zr288      O1279   2.390       .  S
Zr288      O1281   2.375       .  S
O289      Zr1274   2.391       .  S
O289      Zr1278   2.388   1_554  S
O289        H297   0.966       .  S
O290      Zr1274   2.383       .  S
O290      Zr1277   2.388   1_554  S
O291      Zr1278   2.376   1_554  S
O292        H296   0.966       .  S
O293      Zr1277   2.382   1_554  S
O293        H298   0.966       .  S
O311       Zr323   2.432   1_556  S
O311       C1303   1.287       .  A
O312      Zr1339   2.432   1_556  S
O312       C1303   1.286       .  A
C313       O1301   1.286       .  A
C313       O1302   1.289       .  A
C313        C610   1.483       .  S
O314       Zr326   2.411       .  S
O314        C316   1.283       .  A
O315       Zr350   2.428       .  S
O315        C316   1.286       .  A
C316        C883   1.485       .  S
O317       Zr326   2.413       .  S
O317        C319   1.282       .  A
O318       Zr349   2.424       .  S
O318        C319   1.286       .  A
C319        C907   1.466       .  S
O320       Zr323   2.441       .  S
O320       C1312   1.287       .  A
O321       Zr350   2.431       .  S
O321        C322   1.286       .  A
C322       O1310   1.285       .  A
C322        C595   1.467       .  S
Zr323       O325   2.438       .  S
Zr323      O1314   2.434   1_554  S
Zr323       O353   2.364       .  S
Zr323       O355   2.366       .  S
Zr323      O1319   2.367   1_554  S
Zr323      O1320   2.357   1_554  S
O324      Zr1313   2.435       .  S
O324        H367   0.990       .  S
O325        H366   0.990       .  S
O325        H370   0.990       .  S
Zr326       O327   2.437       .  S
Zr326       O328   2.434       .  S
Zr326       O330   2.368       .  S
Zr326       O329   2.369       .  S
Zr326       O354   2.360       .  S
Zr326       O356   2.363       .  S
O327        H368   0.990       .  S
O327        H371   0.990       .  S
O328        H361   0.990       .  S
O329       Zr349   2.370       .  S
O329      Zr1313   2.364       .  S
O330       Zr350   2.378       .  S
O330      Zr1313   2.362       .  S
O330        H357   0.965       .  S
O331       Zr343   2.422       .  S
O331        C333   1.285       .  A
O332      Zr1340   2.422       .  S
O332        C333   1.285       .  A
C333        C874   1.492       .  S
O334       Zr346   2.486       .  S
O334       C1326   1.296       .  A
O335       Zr349   2.415       .  S
O335       C1326   1.287       .  A
C336       O1324   1.295       .  A
C336       O1325   1.286       .  A
C336        C583   1.486       .  S
O337       Zr346   2.485       .  S
O337       C1329   1.296       .  A
O338       Zr350   2.414       .  S
O338       C1329   1.286       .  A
C339       O1327   1.296       .  A
C339       O1328   1.286       .  A
C339        C658   1.491       .  S
O340       Zr343   2.423       .  S
O340        C342   1.284       .  A
O341      Zr1339   2.435       .  S
O341        C342   1.289       .  A
C342        C895   1.477       .  S
Zr343       O344   2.434       .  S
Zr343       O345   2.436       .  S
Zr343       O351   2.366       .  S
Zr343       O352   2.366       .  S
Zr343       O355   2.375       .  S
Zr343       O353   2.370       .  S
O344        H364   0.990       .  S
O344        H369   0.990       .  S
O345        H365   0.990       .  S
Zr346       O348   2.436       .  S
Zr346      O1337   2.435       .  S
Zr346       O356   2.385       .  S
Zr346       O354   2.384       .  S
Zr346      O1342   2.382       .  S
Zr346      O1341   2.384       .  S
O347      Zr1336   2.435   1_554  S
O347        H363   0.990       .  S
O348        H362   0.990       .  S
O348        H372   0.990       .  S
Zr349      O1302   2.447       .  S
Zr349      O1331   2.422       .  S
Zr349       O354   2.392       .  S
Zr349      O1342   2.391       .  S
Zr349      O1345   2.381       .  S
Zr350      O1322   2.425       .  S
Zr350       O356   2.388       .  S
Zr350      O1341   2.396       .  S
Zr350      O1343   2.379       .  S
O351      Zr1336   2.383   1_554  S
O351      Zr1340   2.393       .  S
O351        H359   0.966       .  S
O352      Zr1336   2.384   1_554  S
O352      Zr1339   2.389       .  S
O353      Zr1340   2.375       .  S
O354        H358   0.966       .  S
O355      Zr1339   2.381       .  S
O355        H360   0.966       .  S
O373       Zr385   2.417       .  S
O373        C375   1.282       .  A
O374       Zr411   2.433       .  S
O374        C375   1.289       .  A
C375        C931   1.490       .  S
O376       Zr388   2.446   1_554  S
O376       C1368   1.289       .  A
O377       Zr412   2.445       .  S
O377        C378   1.289       .  A
C378       O1366   1.286       .  A
C378        C574   1.479       .  S
O379       Zr388   2.436       .  S
O379       C1371   1.286       .  A
O380      Zr1401   2.443       .  S
O380       C1371   1.289       .  A
C381       O1369   1.286       .  A
C381       O1370   1.290       .  A
C381        C607   1.482       .  S
O382       Zr385   2.428       .  S
O382        C384   1.284       .  A
O383       Zr412   2.429       .  S
O383        C384   1.286       .  A
C384        C766   1.463       .  S
Zr385       O386   2.434       .  S
Zr385       O387   2.435       .  S
Zr385       O391   2.372       .  S
Zr385       O392   2.369       .  S
Zr385       O415   2.366       .  S
Zr385       O417   2.371       .  S
O386        H429   0.990       .  S
O387        H428   0.990       .  S
O387        H432   0.990       .  S
Zr388       O390   2.435   1_556  S
Zr388      O1379   2.437       .  S
Zr388       O416   2.367   1_556  S
Zr388       O418   2.362   1_556  S
Zr388      O1382   2.363       .  S
Zr388      O1381   2.371       .  S
O389      Zr1378   2.435       .  S
O389        H430   0.990       .  S
O389        H433   0.990       .  S
O390        H423   0.990       .  S
O391       Zr411   2.381       .  S
O391      Zr1378   2.366       .  S
O392       Zr412   2.380       .  S
O392      Zr1378   2.359       .  S
O392        H419   0.967       .  S
O393       Zr405   2.474       .  S
O393       C1385   1.294       .  A
O394       Zr412   2.424       .  S
O394       C1385   1.288       .  A
C395       O1383   1.294       .  A
C395       O1384   1.288   1_556  A
C395        C667   1.490   1_556  S
O396       Zr408   2.423       .  S
O396        C398   1.286       .  A
O397      Zr1401   2.438   1_554  S
O397        C398   1.288       .  A
C398        C922   1.495       .  S
O399       Zr408   2.428       .  S
O399        C401   1.286       .  A
O400      Zr1402   2.439   1_554  S
O400        C401   1.288       .  A
C401        C754   1.496       .  S
O402       Zr405   2.476       .  S
O402       C1394   1.294       .  A
O403       Zr411   2.415       .  S
O403       C1394   1.286       .  A
C404       O1392   1.294       .  A
C404       O1393   1.288       .  A
C404        C622   1.487       .  S
Zr405       O407   2.435       .  S
Zr405      O1396   2.434       .  S
Zr405       O417   2.382       .  S
Zr405       O415   2.387       .  S
Zr405      O1403   2.382       .  S
Zr405      O1404   2.382       .  S
O406      Zr1395   2.435   1_554  S
O406        H426   0.990       .  S
O406        H431   0.990       .  S
O407        H427   0.990       .  S
Zr408       O409   2.434       .  S
Zr408       O410   2.437       .  S
Zr408       O414   2.363       .  S
Zr408       O413   2.363       .  S
Zr408       O418   2.365       .  S
Zr408       O416   2.372       .  S
O409        H425   0.990       .  S
O410        H424   0.990       .  S
O410        H434   0.990       .  S
Zr411      O1370   2.447       .  S
Zr411      O1387   2.448       .  S
Zr411       O417   2.400       .  S
Zr411      O1404   2.388       .  S
Zr411      O1406   2.379       .  S
Zr412      O1390   2.424       .  S
Zr412       O415   2.391       .  S
Zr412      O1403   2.394       .  S
Zr412      O1408   2.376       .  S
O413      Zr1395   2.383   1_554  S
O413      Zr1402   2.388   1_554  S
O413        H421   0.966       .  S
O414      Zr1395   2.383   1_554  S
O414      Zr1401   2.387   1_554  S
O416      Zr1401   2.384   1_554  S
O416        H420   0.966       .  S
O417        H422   0.966       .  S
O418      Zr1402   2.375   1_554  S
O435       Zr447   2.445       .  S
O435       C1427   1.288       .  A
O436      Zr1463   2.440       .  S
O436       C1427   1.288   1_554  A
C437       O1425   1.286       .  A
C437       O1426   1.286       .  A
C437        C598   1.468       .  S
O438       Zr450   2.427       .  S
O438        C440   1.285       .  A
O439       Zr474   2.430       .  S
O439        C440   1.287       .  A
C440        C790   1.481       .  S
O441       Zr450   2.430       .  S
O441        C443   1.286       .  A
O442       Zr473   2.419       .  S
O442        C443   1.286       .  A
C443        C859   1.484       .  S
O444       Zr447   2.434   1_554  S
O444       C1436   1.287       .  A
O445       Zr474   2.435       .  S
O445        C446   1.287       .  A
C446       O1434   1.287       .  A
C446        C571   1.478       .  S
Zr447       O449   2.438   1_556  S
Zr447      O1438   2.434       .  S
Zr447       O477   2.366   1_556  S
Zr447       O479   2.357   1_556  S
Zr447      O1443   2.368       .  S
Zr447      O1444   2.367       .  S
O448      Zr1437   2.435       .  S
O448        H491   0.990       .  S
O449        H490   0.990       .  S
O449        H494   0.990       .  S
Zr450       O451   2.437       .  S
Zr450       O452   2.434       .  S
Zr450       O454   2.377       .  S
Zr450       O453   2.370       .  S
Zr450       O478   2.365       .  S
Zr450       O480   2.366       .  S
O451        H492   0.990       .  S
O451        H495   0.990       .  S
O452        H485   0.990       .  S
O453       Zr473   2.380       .  S
O453      Zr1437   2.367       .  S
O454       Zr474   2.385       .  S
O454      Zr1437   2.356       .  S
O454        H481   0.966       .  S
O455       Zr467   2.421       .  S
O455        C457   1.284       .  A
O456      Zr1464   2.442       .  S
O456        C457   1.290       .  A
C457        C778   1.483       .  S
O458       Zr470   2.490       .  S
O458       C1450   1.297       .  A
O459       Zr473   2.425       .  S
O459       C1450   1.288       .  A
C460       O1448   1.296       .  A
C460       O1449   1.287       .  A
C460        C634   1.491       .  S
O461       Zr470   2.483       .  S
O461       C1453   1.296       .  A
O462       Zr474   2.412       .  S
O462       C1453   1.286       .  A
C463       O1451   1.295       .  A
C463       O1452   1.288       .  A
C463        C559   1.490       .  S
O464       Zr467   2.414       .  S
O464        C466   1.284       .  A
O465      Zr1463   2.407       .  S
O465        C466   1.282       .  A
C466        C850   1.473       .  S
Zr467       O468   2.434       .  S
Zr467       O469   2.435       .  S
Zr467       O475   2.364       .  S
Zr467       O476   2.365       .  S
Zr467       O479   2.369       .  S
Zr467       O477   2.365       .  S
O468        H488   0.990       .  S
O468        H493   0.990       .  S
O469        H489   0.990       .  S
Zr470       O472   2.435       .  S
Zr470      O1461   2.433       .  S
Zr470       O480   2.384       .  S
Zr470       O478   2.382       .  S
Zr470      O1466   2.383       .  S
Zr470      O1465   2.392       .  S
O471      Zr1460   2.437       .  S
O471        H487   0.990       .  S
O472        H486   0.990       .  S
O472        H496   0.990       .  S
Zr473      O1426   2.432       .  S
Zr473      O1455   2.426       .  S
Zr473       O478   2.394       .  S
Zr473      O1466   2.384       .  S
Zr473      O1469   2.385       .  S
Zr474      O1446   2.439       .  S
Zr474       O480   2.396       .  S
Zr474      O1465   2.397       .  S
Zr474      O1467   2.375       .  S
O475      Zr1460   2.389       .  S
O475      Zr1464   2.394       .  S
O475        H483   0.966       .  S
O476      Zr1460   2.383       .  S
O476      Zr1463   2.388       .  S
O477      Zr1464   2.375       .  S
O478        H482   0.966       .  S
O479      Zr1463   2.379       .  S
O479        H484   0.965       .  S
O497       Zr509   2.415       .  S
O497        C499   1.282       .  A
O498       Zr535   2.432       .  S
O498        C499   1.288       .  A
C499        C979   1.491       .  S
O500      Zr1502   2.427       .  S
O500        C502   1.286       .  A
O501       Zr536   2.445       .  S
O501        C502   1.289       .  A
C502        C691   1.481       .  S
O503       Zr512   2.442   1_556  S
O503       C1495   1.287       .  A
O504      Zr1525   2.434       .  S
O504       C1495   1.287       .  A
C505       O1493   1.285       .  A
C505       O1494   1.287       .  A
C505        C646   1.475       .  S
O506       Zr509   2.423       .  S
O506        C508   1.284       .  A
O507       Zr536   2.432       .  S
O507        C508   1.288       .  A
C508        C715   1.474       .  S
Zr509       O510   2.433       .  S
Zr509       O511   2.434       .  S
Zr509       O515   2.368       .  S
Zr509       O516   2.368       .  S
Zr509       O539   2.366       .  S
Zr509       O541   2.367       .  S
O510        H553   0.990       .  S
O511        H552   0.990       .  S
O511        H556   0.990       .  S
Zr512      O1490   2.431       .  S
Zr512       O514   2.434       .  S
Zr512      O1503   2.435   1_554  S
Zr512       O540   2.356       .  S
Zr512       O542   2.364       .  S
Zr512      O1506   2.368   1_554  S
Zr512      O1505   2.366   1_554  S
O513      Zr1502   2.435       .  S
O513        H554   0.990       .  S
O513        H557   0.990       .  S
O514        H547   0.990       .  S
O515       Zr535   2.370       .  S
O515      Zr1502   2.360       .  S
O516       Zr536   2.375       .  S
O516      Zr1502   2.363       .  S
O516        H543   0.966       .  S
O517       Zr529   2.482       .  S
O517       C1509   1.296       .  A
O518       Zr536   2.417       .  S
O518       C1509   1.287       .  A
C519       O1507   1.294       .  A
C519       O1508   1.289       .  A
C519        C562   1.491       .  S
O520       Zr532   2.431       .  S
O520        C522   1.286       .  A
O521      Zr1525   2.444   1_554  S
O521        C522   1.290       .  A
C522        C967   1.477       .  S
O523       Zr532   2.436       .  S
O523        C525   1.286       .  A
O524      Zr1526   2.417       .  S
O524        C525   1.285       .  A
C525        C706   1.468       .  S
O526       Zr529   2.490       .  S
O526       C1518   1.296       .  A
O527       Zr535   2.406       .  S
O527       C1518   1.285       .  A
C528       O1516   1.295       .  A
C528       O1517   1.287       .  A
C528        C586   1.486       .  S
Zr529       O531   2.433       .  S
Zr529      O1520   2.434       .  S
Zr529       O541   2.380       .  S
Zr529       O539   2.388       .  S
Zr529      O1527   2.386       .  S
Zr529      O1528   2.381       .  S
O530      Zr1519   2.434       .  S
O530        H550   0.990       .  S
O530        H555   0.990       .  S
O531        H551   0.989       .  S
Zr532       O533   2.434       .  S
Zr532       O534   2.437       .  S
Zr532       O538   2.371       .  S
Zr532       O537   2.367       .  S
Zr532       O542   2.371       .  S
Zr532       O540   2.373       .  S
O533        H549   0.990       .  S
O534        H548   0.990       .  S
O534        H558   0.990       .  S
Zr535      O1494   2.438       .  S
Zr535      O1511   2.423       .  S
Zr535       O541   2.393       .  S
Zr535      O1528   2.390       .  S
Zr535      O1530   2.382       .  S
Zr536      O1514   2.418       .  S
Zr536       O539   2.389       .  S
Zr536      O1527   2.400       .  S
Zr536      O1532   2.379       .  S
O537      Zr1519   2.378       .  S
O537      Zr1526   2.396       .  S
O537        H545   0.966       .  S
O538      Zr1519   2.382       .  S
O538      Zr1525   2.392   1_554  S
O540      Zr1525   2.379   1_554  S
O540        H544   0.966       .  S
O541        H546   0.966       .  S
O542      Zr1526   2.380       .  S
C559        C564   1.411       .  A
C559       C1550   1.408   1_554  A
C560        C561   1.412       .  A
C560       C1549   1.407       .  A
C560        H565   1.084       .  S
C561       C1552   1.414       .  A
C561        C568   1.443       .  S
C562        C563   1.403       .  A
C562       C1551   1.416   1_554  A
C563        C564   1.398       .  A
C563        H566   1.085       .  S
C564        C567   1.444       .  S
C567        N569   1.157       .  T
C568        N570   1.157       .  T
C571        C576   1.412       .  A
C571       C1562   1.402       .  A
C572        C573   1.399       .  A
C572       C1561   1.403       .  A
C572        H577   1.085       .  S
C573       C1564   1.411       .  A
C573        C580   1.445       .  S
C574        C575   1.404       .  A
C574       C1563   1.412       .  A
C575        C576   1.407       .  A
C575        H578   1.084       .  S
C576        C579   1.443       .  S
C579        N581   1.157       .  T
C580        N582   1.157       .  T
C583        C584   1.406   1_556  A
C583       C1578   1.412       .  A
C584        C585   1.411   1_565  A
C584        H589   1.084       .  S
C585        C586   1.414   1_554  A
C585        C592   1.442       .  S
C586       C1577   1.403       .  A
C587        C588   1.397   1_545  A
C587       C1576   1.403       .  A
C587        H590   1.086       .  S
C588       C1573   1.414       .  A
C588        C591   1.443       .  S
C591        N593   1.156       .  T
C592        N594   1.157       .  T
C595        C596   1.403       .  A
C595        C600   1.408       .  A
C596        C597   1.402       .  A
C596        H601   1.085       .  S
C597        C598   1.410       .  A
C597        C604   1.443       .  S
C598        C599   1.401       .  A
C599        C600   1.398       .  A
C599        H602   1.085       .  S
C600       C1593   1.444       .  S
C603       C1590   1.445       .  S
C603        N605   1.157       .  T
C604        N606   1.157       .  T
C607        C608   1.403       .  A
C607       C1602   1.413       .  A
C608        C609   1.399       .  A
C608        H613   1.085       .  S
C609        C610   1.412       .  A
C609        C616   1.445       .  S
C610       C1601   1.405       .  A
C611        C612   1.406       .  A
C611       C1600   1.402   1_554  A
C611        H614   1.085       .  S
C612       C1597   1.413   1_554  A
C612        C615   1.441       .  S
C615        N617   1.156       .  T
C616        N618   1.157       .  T
C619        C624   1.413       .  A
C619       C1610   1.408   1_554  A
C620        C621   1.412   1_545  A
C620       C1609   1.408       .  A
C620        H625   1.084       .  S
C621       C1612   1.412       .  A
C621        C628   1.442       .  S
C622        C623   1.402       .  A
C622       C1611   1.414   1_554  A
C623        C624   1.399   1_565  A
C623        H626   1.086       .  S
C624        C627   1.443       .  S
C627        N629   1.157       .  T
C628        N630   1.157       .  T
C631        C632   1.402       .  A
C631       C1626   1.413   1_554  A
C632        C633   1.398   1_655  A
C632        H637   1.086       .  S
C633        C634   1.414       .  A
C633        C640   1.443       .  S
C634       C1625   1.409   1_554  A
C635        C636   1.415   1_455  A
C635       C1624   1.409       .  A
C635        H638   1.084       .  S
C636       C1621   1.415       .  A
C636        C639   1.443       .  S
C639        N641   1.157       .  T
C640        N642   1.156       .  T
C643        C644   1.404       .  A
C643       C1638   1.412       .  A
C644        C645   1.402       .  A
C644        H649   1.085       .  S
C645        C646   1.410       .  A
C645        C652   1.445       .  S
C646       C1637   1.402       .  A
C647        C648   1.403       .  A
C647       C1636   1.403   1_554  A
C647        H650   1.085       .  S
C648       C1633   1.411   1_554  A
C648        C651   1.444       .  S
C651        N653   1.157       .  T
C652        N654   1.157       .  T
C655        C660   1.415   1_556  A
C655       C1646   1.401       .  A
C656        C657   1.395   1_655  A
C656       C1645   1.401       .  A
C656        H661   1.086       .  S
C657       C1648   1.414       .  A
C657        C664   1.442       .  S
C658        C659   1.409   1_556  A
C658       C1647   1.414       .  A
C659        C660   1.414   1_455  A
C659        H662   1.084       .  S
C660        C663   1.442       .  S
C663        N665   1.157       .  T
C664        N666   1.156       .  T
C667        C668   1.400       .  A
C667       C1662   1.415   1_554  A
C668        C669   1.396       .  A
C668        H673   1.086       .  S
C669        C670   1.415       .  A
C669        C676   1.444       .  S
C670       C1661   1.410   1_554  A
C671        C672   1.412       .  A
C671       C1660   1.406       .  A
C671        H674   1.084       .  S
C672       C1657   1.415       .  A
C672        C675   1.442       .  S
C675        N677   1.157       .  T
C676        N678   1.156       .  T
C679        C680   1.403       .  A
C679       C1674   1.412       .  A
C680        C681   1.399       .  A
C680        H685   1.085       .  S
C681        C682   1.410       .  A
C681        C688   1.445       .  S
C682       C1673   1.401       .  A
C683        C684   1.405       .  A
C683       C1672   1.403   1_554  A
C683        H686   1.085       .  S
C684       C1669   1.412   1_554  A
C684        C687   1.442       .  S
C687        N689   1.157       .  T
C688        N690   1.157       .  T
C691        C692   1.405       .  A
C691       C1686   1.412       .  A
C692        C693   1.408       .  A
C692        H697   1.084       .  S
C693        C694   1.411       .  A
C693        C700   1.440       .  S
C694       C1685   1.403       .  A
C695        C696   1.397       .  A
C695       C1684   1.403       .  A
C695        H698   1.085       .  S
C696       C1681   1.412       .  A
C696        C699   1.445       .  S
C699        N701   1.157       .  T
C700        N702   1.156       .  T
C703        C704   1.405       .  A
C703        C708   1.412       .  A
C704        C705   1.399       .  A
C704        H709   1.085       .  S
C705        C706   1.408       .  A
C705        C712   1.444       .  S
C706        C707   1.401       .  A
C707        C708   1.398       .  A
C707        H710   1.086       .  S
C708        C711   1.442       .  S
C711        N713   1.156       .  T
C712        N714   1.157       .  T
C715        C716   1.402       .  A
C715        C720   1.412       .  A
C716        C717   1.399       .  A
C716        H721   1.085       .  S
C717        C718   1.415       .  A
C717        C724   1.443       .  S
C718        C719   1.402       .  A
C719        C720   1.396       .  A
C719        H722   1.085       .  S
C720        C723   1.443       .  S
C723        N725   1.157       .  T
C724        N726   1.157       .  T
C727        C728   1.403       .  A
C727        C732   1.421       .  A
C728        C729   1.393       .  A
C728        H733   1.085       .  S
C729        C730   1.420       .  A
C729        C736   1.446       .  S
C730        C731   1.403       .  A
C731        C732   1.398       .  A
C731        H734   1.085       .  S
C732        C735   1.445       .  S
C735        N737   1.157       .  T
C736        N738   1.157       .  T
C739        C740   1.406       .  A
C739        C744   1.420       .  A
C740        C741   1.405       .  A
C740        H745   1.084       .  S
C741        C742   1.421       .  A
C741        C748   1.445       .  S
C742        C743   1.403       .  A
C743        C744   1.395       .  A
C743        H746   1.085       .  S
C744        C747   1.445       .  S
C747        N749   1.157       .  T
C748        N750   1.158       .  T
C751        C752   1.407       .  A
C751        C756   1.413       .  A
C752        C753   1.404       .  A
C752        H757   1.083       .  S
C753        C754   1.416       .  A
C753        C760   1.443       .  S
C754        C755   1.410       .  A
C755        C756   1.398       .  A
C755        H758   1.084       .  S
C756        C759   1.445       .  S
C759        N761   1.157       .  T
C760        N762   1.157       .  T
C763        C764   1.397       .  A
C763        C768   1.411       .  A
C764        C765   1.394       .  A
C764        H769   1.085       .  S
C765        C766   1.410       .  A
C765        C772   1.444       .  S
C766        C767   1.401       .  A
C767        C768   1.401       .  A
C767        H770   1.085       .  S
C768        C771   1.443       .  S
C771        N773   1.157       .  T
C772        N774   1.157       .  T
C775        C776   1.405       .  A
C775        C780   1.420       .  A
C776        C777   1.399       .  A
C776        H781   1.085       .  S
C777        C778   1.414       .  A
C777        C784   1.445       .  S
C778        C779   1.402       .  A
C779        C780   1.403       .  A
C779        H782   1.085       .  S
C780        C783   1.445       .  S
C783        N785   1.157       .  T
C784        N786   1.157       .  T
C787        C788   1.407       .  A
C787        C792   1.408       .  A
C788        C789   1.404       .  A
C788        H793   1.085       .  S
C789        C790   1.413       .  A
C789        C796   1.444       .  S
C790        C791   1.406       .  A
C791        C792   1.391       .  A
C791        H794   1.084       .  S
C792        C795   1.445       .  S
C795        N797   1.157       .  T
C796        N798   1.157       .  T
C799        C800   1.409       .  A
C799        C804   1.410       .  A
C800        C801   1.405       .  A
C800        H805   1.085       .  S
C801        C802   1.412       .  A
C801        C808   1.443       .  S
C802        C803   1.407       .  A
C803        C804   1.392       .  A
C803        H806   1.085       .  S
C804        C807   1.445       .  S
C807        N809   1.157       .  T
C808        N810   1.157       .  T
C811        C812   1.399       .  A
C811        C816   1.411       .  A
C812        C813   1.397       .  A
C812        H817   1.085       .  S
C813        C814   1.413       .  A
C813        C820   1.445       .  S
C814        C815   1.400       .  A
C815        C816   1.399       .  A
C815        H818   1.085       .  S
C816        C819   1.441       .  S
C819        N821   1.156   1_655  T
C820        N822   1.157       .  T
C823        C824   1.399       .  A
C823        C828   1.413       .  A
C824        C825   1.398       .  A
C824        H829   1.085       .  S
C825        C826   1.412       .  A
C825        C832   1.444       .  S
C826        C827   1.401       .  A
C827        C828   1.401       .  A
C827        H830   1.085       .  S
C828        C831   1.443       .  S
C831        N833   1.157   1_655  T
C832        N834   1.157       .  T
C835        C836   1.404       .  A
C835        C840   1.414       .  A
C836        C837   1.396       .  A
C836        H841   1.085       .  S
C837        C838   1.410       .  A
C837        C844   1.444       .  S
C838        C839   1.404       .  A
C839        C840   1.398       .  A
C839        H842   1.085       .  S
C840        C843   1.446       .  S
C843        N845   1.158       .  T
C844        N846   1.157       .  T
C847        C848   1.410       .  A
C847        C852   1.416       .  A
C848        C849   1.395       .  A
C848        H853   1.084       .  S
C849        C850   1.412       .  A
C849        C856   1.445       .  S
C850        C851   1.402       .  A
C851        C852   1.388       .  A
C851        H854   1.085       .  S
C852        C855   1.444       .  S
C855        N857   1.157       .  T
C856        N858   1.158       .  T
C859        C860   1.404       .  A
C859        C864   1.413       .  A
C860        C861   1.402       .  A
C860        H865   1.085       .  S
C861        C862   1.421       .  A
C861        C868   1.444       .  S
C862        C863   1.408       .  A
C863        C864   1.397       .  A
C863        H866   1.084       .  S
C864        C867   1.445       .  S
C867        N869   1.157       .  T
C868        N870   1.157       .  T
C871        C872   1.409       .  A
C871        C876   1.414       .  A
C872        C873   1.403       .  A
C872        H877   1.085       .  S
C873        C874   1.417       .  A
C873        C880   1.444       .  S
C874        C875   1.408       .  A
C875        C876   1.392       .  A
C875        H878   1.084       .  S
C876        C879   1.446       .  S
C879        N881   1.157       .  T
C880        N882   1.157       .  T
C883        C884   1.406       .  A
C883        C888   1.413       .  A
C884        C885   1.392       .  A
C884        H889   1.085       .  S
C885        C886   1.417       .  A
C885        C892   1.445       .  S
C886        C887   1.410       .  A
C887        C888   1.400       .  A
C887        H890   1.084       .  S
C888        C891   1.444       .  S
C891        N893   1.157       .  T
C892        N894   1.157       .  T
C895        C896   1.402       .  A
C895        C900   1.413       .  A
C896        C897   1.398       .  A
C896        H901   1.085       .  S
C897        C898   1.415       .  A
C897        C904   1.444       .  S
C898        C899   1.406       .  A
C899        C900   1.401       .  A
C899        H902   1.085       .  S
C900        C903   1.445       .  S
C903        N905   1.157       .  T
C904        N906   1.157       .  T
C907        C908   1.399       .  A
C907        C912   1.410       .  A
C908        C909   1.395       .  A
C908        H913   1.086       .  S
C909        C910   1.414       .  A
C909        C916   1.442       .  S
C910        C911   1.404       .  A
C911        C912   1.398       .  A
C911        H914   1.085       .  S
C912        C915   1.445       .  S
C915        N917   1.157       .  T
C916        N918   1.156       .  T
C919        C920   1.408       .  A
C919        C924   1.412       .  A
C920        C921   1.406       .  A
C920        H925   1.081       .  S
C921        C922   1.416       .  A
C921        C928   1.444       .  S
C922        C923   1.409       .  A
C923        C924   1.393       .  A
C923        H926   1.084       .  S
C924        C927   1.444       .  S
C927        N929   1.157       .  T
C928        N930   1.158       .  T
C931        C932   1.405       .  A
C931        C936   1.420       .  A
C932        C933   1.401       .  A
C932        H937   1.085       .  S
C933        C934   1.420       .  A
C933        C940   1.444       .  S
C934        C935   1.404       .  A
C935        C936   1.395       .  A
C935        H938   1.085       .  S
C936        C939   1.446       .  S
C939        N941   1.157       .  T
C940        N942   1.157       .  T
C943        C944   1.404       .  A
C943        C948   1.422       .  A
C944        C945   1.396       .  A
C944        H949   1.085       .  S
C945        C946   1.421       .  A
C945        C952   1.446       .  S
C946        C947   1.403       .  A
C947        C948   1.401       .  A
C947        H950   1.085       .  S
C948        C951   1.444       .  S
C951        N953   1.157       .  T
C952        N954   1.157       .  T
C955        C956   1.401       .  A
C955        C960   1.410       .  A
C956        C957   1.397       .  A
C956        H961   1.086       .  S
C957        C958   1.416       .  A
C957        C964   1.442       .  S
C958        C959   1.406       .  A
C959        C960   1.401       .  A
C959        H962   1.085       .  S
C960        C963   1.444       .  S
C963        N965   1.157       .  T
C964        N966   1.156       .  T
C967        C968   1.402       .  A
C967        C972   1.410       .  A
C968        C969   1.402       .  A
C968        H973   1.085       .  S
C969        C970   1.413       .  A
C969        C976   1.443       .  S
C970        C971   1.406       .  A
C971        C972   1.404       .  A
C971        H974   1.085       .  S
C972        C975   1.444       .  S
C975        N977   1.157       .  T
C976        N978   1.157       .  T
C979        C980   1.407       .  A
C979        C984   1.421       .  A
C980        C981   1.402       .  A
C980        H985   1.084       .  S
C981        C982   1.418       .  A
C981        C988   1.445       .  S
C982        C983   1.402       .  A
C983        C984   1.391       .  A
C983        H986   1.085       .  S
C984        C987   1.445       .  S
C987        N989   1.157       .  T
C988        N990   1.158       .  T
O991      Zr1003   2.446       .  S
O991        C993   1.290       .  A
O992      Zr1029   2.401       .  S
O992        C993   1.281       .  A
C993       C1972   1.488       .  S
O994      Zr1006   2.452       .  S
O994        C996   1.290       .  A
O995      Zr1030   2.401   1_565  S
O995        C996   1.281       .  A
C996       C1888   1.480       .  S
O997      Zr1006   2.447       .  S
O997        C999   1.289       .  A
O998      Zr1029   2.410   1_565  S
O998        C999   1.284       .  A
C999       C1900   1.481       .  S
O1000     Zr1003   2.452       .  S
O1000      C1002   1.289       .  A
O1001     Zr1030   2.417       .  S
O1001      C1002   1.284       .  A
C1002      C1960   1.480       .  S
Zr1003     O1004   2.435       .  S
Zr1003     O1005   2.434       .  S
Zr1003     O1009   2.370       .  S
Zr1003     O1010   2.368       .  S
Zr1003     O1033   2.376       .  S
Zr1003     O1035   2.374       .  S
O1004      H1047   0.990       .  S
O1005      H1046   0.990       .  S
O1005      H1050   0.990       .  S
Zr1006     O1007   2.437       .  S
Zr1006     O1008   2.435       .  S
Zr1006     O1010   2.367   1_565  S
Zr1006     O1009   2.370   1_565  S
Zr1006     O1034   2.378       .  S
Zr1006     O1036   2.375       .  S
O1007      H1048   0.990       .  S
O1007      H1051   0.990       .  S
O1008      H1041   0.990       .  S
O1009     Zr1029   2.379       .  S
O1010     Zr1030   2.380       .  S
O1010      H1037   0.965   1_545  S
O1011     Zr1023   2.452       .  S
O1011      C1013   1.291       .  A
O1012     Zr1030   2.394       .  S
O1012      C1013   1.279       .  A
C1013      C1933   1.488       .  S
O1014     Zr1026   2.447       .  S
O1014      C1016   1.290       .  A
O1015     Zr1029   2.412   1_565  S
O1015      C1016   1.283       .  A
C1016      C1924   1.495       .  S
O1017     Zr1026   2.444       .  S
O1017      C1019   1.288       .  A
O1018     Zr1030   2.416   1_565  S
O1018      C1019   1.285       .  A
C1019      C1909   1.483       .  S
O1020     Zr1023   2.450       .  S
O1020      C1022   1.290       .  A
O1021     Zr1029   2.409       .  S
O1021      C1022   1.283       .  A
C1022      C1948   1.486       .  S
Zr1023     O1024   2.437       .  S
Zr1023     O1025   2.434       .  S
Zr1023     O1031   2.373       .  S
Zr1023     O1032   2.374       .  S
Zr1023     O1035   2.374       .  S
Zr1023     O1033   2.374       .  S
O1024      H1044   0.990       .  S
O1024      H1049   0.990       .  S
O1025      H1045   0.990       .  S
Zr1026     O1027   2.436       .  S
Zr1026     O1028   2.436       .  S
Zr1026     O1032   2.370   1_565  S
Zr1026     O1031   2.366   1_565  S
Zr1026     O1036   2.376       .  S
Zr1026     O1034   2.369       .  S
O1027      H1043   0.990       .  S
O1028      H1042   0.990       .  S
O1028      H1052   0.990       .  S
Zr1029     O1032   2.374       .  S
Zr1029     O1034   2.382   1_545  S
Zr1029     O1035   2.384       .  S
Zr1030     O1031   2.382       .  S
Zr1030     O1033   2.382       .  S
Zr1030     O1036   2.381   1_545  S
O1031      H1039   0.965       .  S
O1034      H1038   0.966       .  S
O1035      H1040   0.966       .  S
O1053     Zr1065   2.425       .  S
O1053      C1055   1.284       .  A
O1054     Zr1091   2.409   1_455  S
O1054      C1055   1.284       .  A
C1055      C1876   1.487       .  S
O1056     Zr1068   2.434       .  S
O1056      C1058   1.286       .  A
O1057     Zr1092   2.428       .  S
O1057      C1058   1.287       .  A
C1058      C1789   1.492       .  S
O1059     Zr1068   2.442       .  S
O1059      C1061   1.287       .  A
O1060     Zr1091   2.398       .  S
O1060      C1061   1.281       .  A
C1061      C1801   1.459       .  S
O1062     Zr1065   2.436       .  S
O1062      C1064   1.287       .  A
O1063     Zr1092   2.414   1_455  S
O1063      C1064   1.284       .  A
C1064      C1861   1.475       .  S
Zr1065     O1066   2.435       .  S
Zr1065     O1067   2.433       .  S
Zr1065     O1071   2.367   1_455  S
Zr1065     O1072   2.358   1_455  S
Zr1065     O1095   2.370       .  S
Zr1065     O1097   2.375       .  S
O1066      H1109   0.990       .  S
O1067      H1108   0.990       .  S
O1067      H1112   0.990       .  S
Zr1068     O1069   2.438       .  S
Zr1068     O1070   2.434       .  S
Zr1068     O1072   2.370       .  S
Zr1068     O1071   2.369       .  S
Zr1068     O1096   2.368       .  S
Zr1068     O1098   2.374       .  S
O1069      H1110   0.990       .  S
O1069      H1113   0.990       .  S
O1070      H1103   0.990       .  S
O1071     Zr1091   2.373       .  S
O1072     Zr1092   2.376       .  S
O1072      H1099   0.965   1_655  S
O1073     Zr1085   2.443       .  S
O1073      C1075   1.288       .  A
O1074     Zr1092   2.413   1_455  S
O1074      C1075   1.285       .  A
C1075      C1837   1.489       .  S
O1076     Zr1088   2.441       .  S
O1076      C1078   1.289       .  A
O1077     Zr1091   2.402       .  S
O1077      C1078   1.282       .  A
C1078      C1825   1.475       .  S
O1079     Zr1088   2.460       .  S
O1079      C1081   1.291       .  A
O1080     Zr1092   2.408       .  S
O1080      C1081   1.283       .  A
C1081      C1813   1.474       .  S
O1082     Zr1085   2.459       .  S
O1082      C1084   1.292       .  A
O1083     Zr1091   2.410   1_455  S
O1083      C1084   1.282       .  A
C1084      C1852   1.499       .  S
Zr1085     O1086   2.436       .  S
Zr1085     O1087   2.434       .  S
Zr1085     O1093   2.376   1_455  S
Zr1085     O1094   2.362   1_455  S
Zr1085     O1097   2.366       .  S
Zr1085     O1095   2.381       .  S
O1086      H1106   0.990       .  S
O1086      H1111   0.990       .  S
O1087      H1107   0.990       .  S
Zr1088     O1089   2.433       .  S
Zr1088     O1090   2.435       .  S
Zr1088     O1094   2.378       .  S
Zr1088     O1093   2.370       .  S
Zr1088     O1098   2.370       .  S
Zr1088     O1096   2.371       .  S
O1089      H1105   0.990       .  S
O1090      H1104   0.990       .  S
O1090      H1114   0.990       .  S
Zr1091     O1094   2.373       .  S
Zr1091     O1096   2.385       .  S
Zr1091     O1097   2.377   1_655  S
Zr1092     O1093   2.384       .  S
Zr1092     O1095   2.381   1_655  S
Zr1092     O1098   2.381       .  S
O1093      H1101   0.966       .  S
O1096      H1100   0.966       .  S
O1097      H1102   0.966       .  S
O1115     Zr1127   2.440       .  S
O1115      C1117   1.288       .  A
O1116     Zr1153   2.422       .  S
O1116      C1117   1.286       .  A
C1117      C1777   1.490       .  S
O1118     Zr1130   2.450       .  S
O1118      C1120   1.289       .  A
O1119     Zr1154   2.408       .  S
O1119      C1120   1.283       .  A
C1120      C1693   1.475       .  S
O1121     Zr1130   2.463       .  S
O1121      C1123   1.292       .  A
O1122     Zr1153   2.406       .  S
O1122      C1123   1.283       .  A
C1123      C1708   1.490       .  S
O1124     Zr1127   2.457       .  S
O1124      C1126   1.292       .  A
O1125     Zr1154   2.403       .  S
O1125      C1126   1.281       .  A
C1126      C1765   1.482       .  S
Zr1127     O1128   2.432       .  S
Zr1127     O1129   2.434       .  S
Zr1127     O1133   2.373       .  S
Zr1127     O1134   2.368       .  S
Zr1127     O1157   2.366       .  S
Zr1127     O1159   2.377       .  S
O1128      H1171   0.990       .  S
O1129      H1170   0.990       .  S
O1129      H1174   0.990       .  S
Zr1130     O1131   2.437       .  S
Zr1130     O1132   2.437       .  S
Zr1130     O1134   2.382       .  S
Zr1130     O1133   2.368       .  S
Zr1130     O1158   2.375       .  S
Zr1130     O1160   2.381       .  S
O1131      H1172   0.990       .  S
O1131      H1175   0.990       .  S
O1132      H1165   0.990       .  S
O1133     Zr1153   2.372       .  S
O1134     Zr1154   2.382       .  S
O1134      H1161   0.966       .  S
O1135     Zr1147   2.442       .  S
O1135      C1137   1.288       .  A
O1136     Zr1154   2.421       .  S
O1136      C1137   1.286       .  A
C1137      C1741   1.483       .  S
O1138     Zr1150   2.450       .  S
O1138      C1140   1.291       .  A
O1139     Zr1153   2.417       .  S
O1139      C1140   1.284       .  A
C1140      C1732   1.496       .  S
O1141     Zr1150   2.457       .  S
O1141      C1143   1.292       .  A
O1142     Zr1154   2.387       .  S
O1142      C1143   1.278       .  A
C1143      C1717   1.490       .  S
O1144     Zr1147   2.439       .  S
O1144      C1146   1.286       .  A
O1145     Zr1153   2.404       .  S
O1145      C1146   1.282       .  A
C1146      C1753   1.465       .  S
Zr1147     O1148   2.438       .  S
Zr1147     O1149   2.434       .  S
Zr1147     O1155   2.365       .  S
Zr1147     O1156   2.365       .  S
Zr1147     O1159   2.377       .  S
Zr1147     O1157   2.373       .  S
O1148      H1168   0.990       .  S
O1148      H1173   0.990       .  S
O1149      H1169   0.990       .  S
Zr1150     O1151   2.434       .  S
Zr1150     O1152   2.436       .  S
Zr1150     O1156   2.366       .  S
Zr1150     O1155   2.372       .  S
Zr1150     O1160   2.371       .  S
Zr1150     O1158   2.376       .  S
O1151      H1167   0.990       .  S
O1152      H1166   0.990       .  S
O1152      H1176   0.990       .  S
Zr1153     O1156   2.376       .  S
Zr1153     O1158   2.383       .  S
Zr1153     O1159   2.383       .  S
Zr1154     O1155   2.380       .  S
Zr1154     O1157   2.372       .  S
Zr1154     O1160   2.386       .  S
O1155      H1163   0.965       .  S
O1158      H1162   0.966       .  S
O1159      H1164   0.966       .  S
O1177     Zr1189   2.434       .  S
C1179      C1669   1.477       .  S
O1180     Zr1192   2.421       .  S
O1180      C1182   1.282       .  A
O1181     Zr1216   2.451   1_556  S
O1181      C1182   1.292       .  A
C1182      C1729   1.499       .  S
O1183     Zr1192   2.421       .  S
O1183      C1185   1.284       .  A
O1184     Zr1215   2.419       .  S
O1184      C1185   1.285       .  A
C1185      C1804   1.465       .  S
O1186     Zr1189   2.429       .  S
O1187     Zr1216   2.445       .  S
O1187      C1188   1.289       .  A
C1188      C1684   1.483       .  S
Zr1189     O1191   2.437       .  S
Zr1189     O1219   2.364       .  S
Zr1189     O1221   2.368       .  S
O1190      H1233   0.990       .  S
O1191      H1232   0.990       .  S
O1191      H1236   0.990       .  S
Zr1192     O1193   2.437       .  S
Zr1192     O1194   2.434       .  S
Zr1192     O1196   2.371       .  S
Zr1192     O1195   2.361       .  S
Zr1192     O1220   2.367       .  S
Zr1192     O1222   2.366       .  S
O1193      H1234   0.990       .  S
O1193      H1237   0.989       .  S
O1194      H1227   0.990       .  S
O1195     Zr1215   2.376       .  S
O1196     Zr1216   2.380   1_556  S
O1196      H1223   0.966       .  S
O1197     Zr1209   2.409       .  S
O1197      C1199   1.280       .  A
O1198      C1199   1.290       .  A
C1199      C1720   1.489       .  S
O1200     Zr1212   2.477       .  S
O1201     Zr1215   2.419       .  S
C1202      C1645   1.488       .  S
O1203     Zr1212   2.490       .  S
O1204     Zr1216   2.411       .  S
C1205      C1660   1.485       .  S
O1206     Zr1209   2.409       .  S
O1206      C1208   1.283       .  A
O1207      C1208   1.287       .  A
C1208      C1792   1.493       .  S
Zr1209     O1210   2.436       .  S
Zr1209     O1211   2.434       .  S
Zr1209     O1217   2.359       .  S
Zr1209     O1218   2.362       .  S
Zr1209     O1221   2.370       .  S
Zr1209     O1219   2.367       .  S
O1210      H1230   0.990       .  S
O1210      H1235   0.990       .  S
O1211      H1231   0.990       .  S
Zr1212     O1214   2.433       .  S
Zr1212     O1222   2.384       .  S
Zr1212     O1220   2.387       .  S
O1213      H1229   0.990       .  S
O1214      H1228   0.990       .  S
O1214      H1238   0.990       .  S
Zr1215     O1220   2.396       .  S
Zr1216     O1222   2.388   1_554  S
O1217      H1225   0.966       .  S
O1220      H1224   0.966       .  S
O1221      H1226   0.966       .  S
O1239     Zr1251   2.426       .  S
C1241      C1633   1.478       .  S
O1242     Zr1254   2.441       .  S
O1242      C1244   1.286       .  A
O1243     Zr1278   2.411       .  S
O1243      C1244   1.284       .  A
C1244      C1828   1.470       .  S
O1245     Zr1254   2.413       .  S
O1245      C1247   1.283       .  A
O1246     Zr1277   2.445       .  S
O1246      C1247   1.291       .  A
C1247      C1945   1.478       .  S
O1248     Zr1251   2.428       .  S
O1249     Zr1278   2.439       .  S
O1249      C1250   1.288       .  A
C1250      C1672   1.475       .  S
Zr1251     O1253   2.433       .  S
Zr1251     O1281   2.364       .  S
Zr1251     O1283   2.362       .  S
O1252      H1295   0.990       .  S
O1253      H1294   0.990       .  S
O1253      H1298   0.990       .  S
Zr1254     O1255   2.438       .  S
Zr1254     O1256   2.434       .  S
Zr1254     O1258   2.365       .  S
Zr1254     O1257   2.379       .  S
Zr1254     O1282   2.370       .  S
Zr1254     O1284   2.364       .  S
O1255      H1296   0.990       .  S
O1255      H1299   0.990       .  S
O1256      H1289   0.990       .  S
O1257     Zr1277   2.380       .  S
O1258     Zr1278   2.384       .  S
O1258      H1285   0.965       .  S
O1259     Zr1271   2.413       .  S
O1259      C1261   1.282       .  A
O1260      C1261   1.289       .  A
C1261      C1816   1.476       .  S
O1262     Zr1274   2.484       .  S
O1263     Zr1277   2.423   1_554  S
C1264      C1609   1.488       .  S
O1265     Zr1274   2.475       .  S
O1266     Zr1278   2.422   1_554  S
C1267      C1621   1.493       .  S
O1268     Zr1271   2.412       .  S
O1268      C1270   1.281       .  A
O1269      C1270   1.286       .  A
C1270      C1936   1.485       .  S
Zr1271     O1272   2.436       .  S
Zr1271     O1273   2.433       .  S
Zr1271     O1279   2.368       .  S
Zr1271     O1280   2.363       .  S
Zr1271     O1283   2.369       .  S
Zr1271     O1281   2.365       .  S
O1272      H1292   0.990       .  S
O1272      H1297   0.990       .  S
O1273      H1293   0.990       .  S
Zr1274     O1276   2.437   1_554  S
Zr1274     O1284   2.386   1_554  S
Zr1274     O1282   2.380   1_554  S
O1275      H1291   0.990       .  S
O1276      H1290   0.990       .  S
O1276      H1300   0.990       .  S
Zr1277     O1282   2.398       .  S
Zr1278     O1284   2.393       .  S
O1279      H1287   0.966       .  S
O1282      H1286   0.966       .  S
O1283      H1288   0.966       .  S
O1301     Zr1313   2.432       .  S
C1303      C1600   1.474       .  S
O1304     Zr1316   2.417       .  S
O1304      C1306   1.284       .  A
O1305     Zr1340   2.422   1_556  S
O1305      C1306   1.285       .  A
C1306      C1873   1.482       .  S
O1307     Zr1316   2.423       .  S
O1307      C1309   1.284       .  A
O1308     Zr1339   2.435   1_556  S
O1308      C1309   1.288       .  A
C1309      C1897   1.476       .  S
O1310     Zr1313   2.428       .  S
O1311     Zr1340   2.434       .  S
O1311      C1312   1.286       .  A
C1312      C1585   1.475       .  S
Zr1313     O1315   2.436       .  S
Zr1313     O1343   2.366       .  S
Zr1313     O1345   2.359       .  S
O1314      H1357   0.990       .  S
O1315      H1356   0.990       .  S
O1315      H1360   0.990       .  S
Zr1316     O1317   2.438       .  S
Zr1316     O1318   2.434       .  S
Zr1316     O1320   2.371       .  S
Zr1316     O1319   2.366       .  S
Zr1316     O1344   2.363       .  S
Zr1316     O1346   2.367       .  S
O1317      H1358   0.990       .  S
O1317      H1361   0.990       .  S
O1318      H1351   0.990       .  S
O1319     Zr1339   2.375   1_556  S
O1320     Zr1340   2.379   1_556  S
O1320      H1347   0.965       .  S
O1321     Zr1333   2.427       .  S
O1321      C1323   1.286       .  A
O1322      C1323   1.286       .  A
C1323      C1864   1.485       .  S
O1324     Zr1336   2.481       .  S
O1325     Zr1339   2.415   1_556  S
C1326      C1573   1.492       .  S
O1327     Zr1336   2.485       .  S
O1328     Zr1340   2.413   1_556  S
C1329      C1648   1.490       .  S
O1330     Zr1333   2.425       .  S
O1330      C1332   1.284       .  A
O1331      C1332   1.287       .  A
C1332      C1885   1.473       .  S
Zr1333     O1334   2.433       .  S
Zr1333     O1335   2.434       .  S
Zr1333     O1341   2.366       .  S
Zr1333     O1342   2.365       .  S
Zr1333     O1345   2.379       .  S
Zr1333     O1343   2.370       .  S
O1334      H1354   0.990       .  S
O1334      H1359   0.990       .  S
O1335      H1355   0.990       .  S
Zr1336     O1338   2.435       .  S
Zr1336     O1346   2.381       .  S
Zr1336     O1344   2.385       .  S
O1337      H1353   0.990       .  S
O1338      H1352   0.990       .  S
O1338      H1362   0.990       .  S
Zr1339     O1344   2.390   1_554  S
Zr1340     O1346   2.385   1_554  S
O1341      H1349   0.966       .  S
O1344      H1348   0.966       .  S
O1345      H1350   0.966       .  S
O1363     Zr1375   2.425       .  S
O1363      C1365   1.284       .  A
O1364     Zr1401   2.435       .  S
O1364      C1365   1.289       .  A
C1365      C1921   1.496       .  S
O1366     Zr1378   2.431       .  S
O1367     Zr1402   2.440   1_554  S
O1367      C1368   1.288       .  A
C1368      C1564   1.485       .  S
O1369     Zr1378   2.430       .  S
C1371      C1597   1.479       .  S
O1372     Zr1375   2.427       .  S
O1372      C1374   1.284       .  A
O1373     Zr1402   2.425       .  S
O1373      C1374   1.286       .  A
C1374      C1756   1.462       .  S
Zr1375     O1376   2.435       .  S
Zr1375     O1377   2.437       .  S
Zr1375     O1381   2.372       .  S
Zr1375     O1382   2.378       .  S
Zr1375     O1405   2.369       .  S
Zr1375     O1407   2.365       .  S
O1376      H1419   0.990       .  S
O1377      H1418   0.990       .  S
O1377      H1422   0.990       .  S
Zr1378     O1380   2.434       .  S
Zr1378     O1406   2.357       .  S
Zr1378     O1408   2.362       .  S
O1379      H1420   0.990       .  S
O1379      H1423   0.990       .  S
O1380      H1413   0.990       .  S
O1381     Zr1401   2.384       .  S
O1382     Zr1402   2.387       .  S
O1382      H1409   0.966       .  S
O1383     Zr1395   2.475       .  S
O1384     Zr1402   2.422   1_554  S
C1385      C1657   1.487       .  S
O1386     Zr1398   2.420       .  S
O1386      C1388   1.285       .  A
O1387      C1388   1.290       .  A
C1388      C1912   1.490       .  S
O1389     Zr1398   2.427       .  S
O1389      C1391   1.285       .  A
O1390      C1391   1.286       .  A
C1391      C1744   1.487       .  S
O1392     Zr1395   2.471   1_554  S
O1393     Zr1401   2.424   1_554  S
C1394      C1612   1.485       .  S
Zr1395     O1397   2.435       .  S
Zr1395     O1407   2.382       .  S
Zr1395     O1405   2.380       .  S
O1396      H1416   0.990       .  S
O1396      H1421   0.990       .  S
O1397      H1417   0.990       .  S
Zr1398     O1399   2.434       .  S
Zr1398     O1400   2.437       .  S
Zr1398     O1404   2.364       .  S
Zr1398     O1403   2.365       .  S
Zr1398     O1408   2.365       .  S
Zr1398     O1406   2.371       .  S
O1399      H1415   0.990       .  S
O1400      H1414   0.990       .  S
O1400      H1424   0.990       .  S
Zr1401     O1407   2.395       .  S
Zr1402     O1405   2.393       .  S
O1403      H1411   0.966       .  S
O1406      H1410   0.966       .  S
O1407      H1412   0.966       .  S
O1425     Zr1437   2.431       .  S
C1427      C1588   1.478       .  S
O1428     Zr1440   2.431       .  S
O1428      C1430   1.287       .  A
O1429     Zr1464   2.437   1_556  S
O1429      C1430   1.288       .  A
C1430      C1780   1.495       .  S
O1431     Zr1440   2.438       .  S
O1431      C1433   1.287       .  A
O1432     Zr1463   2.424   1_556  S
O1432      C1433   1.286       .  A
C1433      C1849   1.491       .  S
O1434     Zr1437   2.441       .  S
O1435     Zr1464   2.444       .  S
O1435      C1436   1.289       .  A
C1436      C1561   1.481       .  S
Zr1437     O1439   2.435       .  S
Zr1437     O1467   2.362       .  S
Zr1437     O1469   2.369       .  S
O1438      H1481   0.990       .  S
O1439      H1480   0.990       .  S
O1439      H1484   0.990       .  S
Zr1440     O1441   2.436       .  S
Zr1440     O1442   2.436       .  S
Zr1440     O1444   2.381       .  S
Zr1440     O1443   2.370       .  S
Zr1440     O1468   2.363       .  S
Zr1440     O1470   2.367       .  S
O1441      H1482   0.990       .  S
O1441      H1485   0.990       .  S
O1442      H1475   0.990       .  S
O1443     Zr1463   2.374   1_556  S
O1444     Zr1464   2.390   1_556  S
O1444      H1471   0.966       .  S
O1445     Zr1457   2.429       .  S
O1445      C1447   1.285       .  A
O1446      C1447   1.289       .  A
C1447      C1768   1.490       .  S
O1448     Zr1460   2.483       .  S
O1449     Zr1463   2.419       .  S
C1450      C1624   1.496       .  S
O1451     Zr1460   2.477       .  S
O1452     Zr1464   2.424       .  S
C1453      C1549   1.486       .  S
O1454     Zr1457   2.429       .  S
O1454      C1456   1.285       .  A
O1455      C1456   1.286       .  A
C1456      C1840   1.483       .  S
Zr1457     O1458   2.435       .  S
Zr1457     O1459   2.434       .  S
Zr1457     O1465   2.365       .  S
Zr1457     O1466   2.362       .  S
Zr1457     O1469   2.374       .  S
Zr1457     O1467   2.370       .  S
O1458      H1478   0.990       .  S
O1458      H1483   0.990       .  S
O1459      H1479   0.990       .  S
Zr1460     O1462   2.434   1_554  S
Zr1460     O1470   2.382   1_554  S
Zr1460     O1468   2.384   1_554  S
O1461      H1477   0.990       .  S
O1462      H1476   0.990       .  S
O1462      H1486   0.990       .  S
Zr1463     O1468   2.390   1_554  S
Zr1464     O1470   2.392   1_554  S
O1465      H1473   0.966       .  S
O1468      H1472   0.966       .  S
O1469      H1474   0.965       .  S
O1487     Zr1499   2.414       .  S
O1487      C1489   1.282       .  A
O1488     Zr1525   2.439       .  S
O1488      C1489   1.290       .  A
C1489      C1969   1.493       .  S
O1490      C1492   1.287       .  A
O1491     Zr1526   2.441       .  S
O1491      C1492   1.288       .  A
C1492      C1681   1.480       .  S
O1493     Zr1502   2.432       .  S
C1495      C1636   1.475       .  S
O1496     Zr1499   2.422       .  S
O1496      C1498   1.284       .  A
O1497     Zr1526   2.438   1_556  S
O1497      C1498   1.289       .  A
C1498      C1705   1.480       .  S
Zr1499     O1500   2.434       .  S
Zr1499     O1501   2.434       .  S
Zr1499     O1505   2.369       .  S
Zr1499     O1506   2.366       .  S
Zr1499     O1529   2.368       .  S
Zr1499     O1531   2.368       .  S
O1500      H1543   0.990       .  S
O1501      H1542   0.990       .  S
O1501      H1546   0.990       .  S
Zr1502     O1504   2.434       .  S
Zr1502     O1530   2.362       .  S
Zr1502     O1532   2.367       .  S
O1503      H1544   0.990       .  S
O1503      H1547   0.990       .  S
O1504      H1537   0.990       .  S
O1505     Zr1525   2.378       .  S
O1506     Zr1526   2.380   1_556  S
O1506      H1533   0.966       .  S
O1507     Zr1519   2.473       .  S
O1508     Zr1526   2.425       .  S
C1509      C1552   1.486       .  S
O1510     Zr1522   2.439       .  S
O1510      C1512   1.287       .  A
O1511      C1512   1.286       .  A
C1512      C1957   1.472       .  S
O1513     Zr1522   2.443       .  S
O1513      C1515   1.287       .  A
O1514      C1515   1.285       .  A
C1515      C1696   1.471       .  S
O1516     Zr1519   2.478   1_556  S
O1517     Zr1525   2.415       .  S
C1518      C1576   1.491       .  S
Zr1519     O1521   2.433   1_554  S
Zr1519     O1531   2.382   1_554  S
Zr1519     O1529   2.387   1_554  S
O1520      H1540   0.990       .  S
O1520      H1545   0.990       .  S
O1521      H1541   0.989       .  S
Zr1522     O1523   2.434       .  S
Zr1522     O1524   2.438       .  S
Zr1522     O1528   2.370       .  S
Zr1522     O1527   2.366       .  S
Zr1522     O1532   2.372       .  S
Zr1522     O1530   2.380       .  S
O1523      H1539   0.990       .  S
O1524      H1538   0.990       .  S
O1524      H1548   0.990       .  S
Zr1525     O1531   2.391       .  S
Zr1526     O1529   2.386   1_554  S
O1527      H1535   0.966       .  S
O1530      H1534   0.966       .  S
O1531      H1536   0.966       .  S
C1549      C1554   1.412       .  A
C1550      C1551   1.415       .  A
C1550      H1555   1.084       .  S
C1551      C1558   1.443       .  S
C1552      C1553   1.403       .  A
C1553      C1554   1.399       .  A
C1553      H1556   1.085       .  S
C1554      C1557   1.445       .  S
C1557      N1559   1.157       .  T
C1558      N1560   1.157       .  T
C1561      C1566   1.411   1_554  A
C1562      C1563   1.399       .  A
C1562      H1567   1.085       .  S
C1563      C1570   1.445       .  S
C1564      C1565   1.406   1_554  A
C1565      C1566   1.408       .  A
C1565      H1568   1.082       .  S
C1566      C1569   1.442       .  S
C1569      N1571   1.157       .  T
C1570      N1572   1.157       .  T
C1573      C1574   1.408       .  A
C1574      C1575   1.414   1_565  A
C1574      H1579   1.084       .  S
C1575      C1576   1.415       .  A
C1575      C1582   1.441       .  S
C1577      C1578   1.398   1_545  A
C1577      H1580   1.086       .  S
C1578      C1581   1.443       .  S
C1581      N1583   1.156       .  T
C1582      N1584   1.157       .  T
C1585      C1586   1.402   1_554  A
C1585      C1590   1.410       .  A
C1586      C1587   1.402       .  A
C1586      H1591   1.085       .  S
C1587      C1588   1.411       .  A
C1587      C1594   1.443       .  S
C1588      C1589   1.405   1_556  A
C1589      C1590   1.405       .  A
C1589      H1592   1.085       .  S
C1593      N1595   1.157       .  T
C1594      N1596   1.157       .  T
C1597      C1598   1.404       .  A
C1598      C1599   1.399       .  A
C1598      H1603   1.085       .  S
C1599      C1600   1.410       .  A
C1599      C1606   1.445       .  S
C1601      C1602   1.409       .  A
C1601      H1604   1.084       .  S
C1602      C1605   1.441       .  S
C1605      N1607   1.156       .  T
C1606      N1608   1.157       .  T
C1609      C1614   1.413       .  A
C1610      C1611   1.413   1_545  A
C1610      H1615   1.084       .  S
C1611      C1618   1.443       .  S
C1612      C1613   1.401       .  A
C1613      C1614   1.399   1_565  A
C1613      H1616   1.085       .  S
C1614      C1617   1.443       .  S
C1617      N1619   1.156       .  T
C1618      N1620   1.157       .  T
C1621      C1622   1.403       .  A
C1622      C1623   1.402   1_655  A
C1622      H1627   1.085       .  S
C1623      C1624   1.415       .  A
C1623      C1630   1.444       .  S
C1625      C1626   1.413   1_455  A
C1625      H1628   1.084       .  S
C1626      C1629   1.443       .  S
C1629      N1631   1.157       .  T
C1630      N1632   1.157       .  T
C1633      C1634   1.404       .  A
C1634      C1635   1.405       .  A
C1634      H1639   1.085       .  S
C1635      C1636   1.410       .  A
C1635      C1642   1.444       .  S
C1637      C1638   1.404       .  A
C1637      H1640   1.084       .  S
C1638      C1641   1.442       .  S
C1641      N1643   1.156       .  T
C1642      N1644   1.157       .  T
C1645      C1650   1.414       .  A
C1646      C1647   1.396   1_655  A
C1646      H1651   1.086       .  S
C1647      C1654   1.443       .  S
C1648      C1649   1.408       .  A
C1649      C1650   1.413   1_455  A
C1649      H1652   1.084       .  S
C1650      C1653   1.442       .  S
C1653      N1655   1.157       .  T
C1654      N1656   1.156       .  T
C1657      C1658   1.403       .  A
C1658      C1659   1.398       .  A
C1658      H1663   1.085       .  S
C1659      C1660   1.412       .  A
C1659      C1666   1.445       .  S
C1661      C1662   1.416       .  A
C1661      H1664   1.084       .  S
C1662      C1665   1.443       .  S
C1665      N1667   1.157       .  T
C1666      N1668   1.157       .  T
C1669      C1670   1.403       .  A
C1670      C1671   1.398       .  A
C1670      H1675   1.085       .  S
C1671      C1672   1.411       .  A
C1671      C1678   1.445       .  S
C1673      C1674   1.404       .  A
C1673      H1676   1.085       .  S
C1674      C1677   1.440       .  S
C1677      N1679   1.156       .  T
C1678      N1680   1.157       .  T
C1681      C1682   1.404   1_554  A
C1682      C1683   1.408       .  A
C1682      H1687   1.085       .  S
C1683      C1684   1.413   1_556  A
C1683      C1690   1.441       .  S
C1685      C1686   1.399       .  A
C1685      H1688   1.085       .  S
C1686      C1689   1.445       .  S
C1689      N1691   1.157       .  T
C1690      N1692   1.156       .  T
C1693      C1694   1.403       .  A
C1693      C1698   1.413       .  A
C1694      C1695   1.399       .  A
C1694      H1699   1.085       .  S
C1695      C1696   1.409       .  A
C1695      C1702   1.443       .  S
C1696      C1697   1.402       .  A
C1697      C1698   1.400       .  A
C1697      H1700   1.085       .  S
C1698      C1701   1.443       .  S
C1701      N1703   1.156       .  T
C1702      N1704   1.157       .  T
C1705      C1706   1.400       .  A
C1705      C1710   1.414       .  A
C1706      C1707   1.400       .  A
C1706      H1711   1.085       .  S
C1707      C1708   1.419       .  A
C1707      C1714   1.443       .  S
C1708      C1709   1.405       .  A
C1709      C1710   1.402       .  A
C1709      H1712   1.085       .  S
C1710      C1713   1.444       .  S
C1713      N1715   1.157       .  T
C1714      N1716   1.157       .  T
C1717      C1718   1.402       .  A
C1717      C1722   1.422       .  A
C1718      C1719   1.394       .  A
C1718      H1723   1.085       .  S
C1719      C1720   1.421       .  A
C1719      C1726   1.445       .  S
C1720      C1721   1.404       .  A
C1721      C1722   1.400       .  A
C1721      H1724   1.085       .  S
C1722      C1725   1.446       .  S
C1725      N1727   1.158       .  T
C1726      N1728   1.157       .  T
C1729      C1730   1.407       .  A
C1729      C1734   1.422       .  A
C1730      C1731   1.406       .  A
C1730      H1735   1.084       .  S
C1731      C1732   1.419       .  A
C1731      C1738   1.444       .  S
C1732      C1733   1.403       .  A
C1733      C1734   1.397       .  A
C1733      H1736   1.085       .  S
C1734      C1737   1.445       .  S
C1737      N1739   1.157       .  T
C1738      N1740   1.157       .  T
C1741      C1742   1.406       .  A
C1741      C1746   1.411       .  A
C1742      C1743   1.403       .  A
C1742      H1747   1.082       .  S
C1743      C1744   1.414       .  A
C1743      C1750   1.444       .  S
C1744      C1745   1.408       .  A
C1745      C1746   1.396       .  A
C1745      H1748   1.084       .  S
C1746      C1749   1.445       .  S
C1749      N1751   1.157       .  T
C1750      N1752   1.157       .  T
C1753      C1754   1.399       .  A
C1753      C1758   1.412       .  A
C1754      C1755   1.392       .  A
C1754      H1759   1.085       .  S
C1755      C1756   1.408       .  A
C1755      C1762   1.444       .  S
C1756      C1757   1.402       .  A
C1757      C1758   1.402       .  A
C1757      H1760   1.085       .  S
C1758      C1761   1.444       .  S
C1761      N1763   1.157       .  T
C1762      N1764   1.157       .  T
C1765      C1766   1.400       .  A
C1765      C1770   1.416       .  A
C1766      C1767   1.398       .  A
C1766      H1771   1.085       .  S
C1767      C1768   1.419       .  A
C1767      C1774   1.444       .  S
C1768      C1769   1.404       .  A
C1769      C1770   1.401       .  A
C1769      H1772   1.084       .  S
C1770      C1773   1.443       .  S
C1773      N1775   1.157       .  T
C1774      N1776   1.157       .  T
C1777      C1778   1.409       .  A
C1777      C1782   1.414       .  A
C1778      C1779   1.406       .  A
C1778      H1783   1.085       .  S
C1779      C1780   1.416       .  A
C1779      C1786   1.444       .  S
C1780      C1781   1.408       .  A
C1781      C1782   1.395       .  A
C1781      H1784   1.084       .  S
C1782      C1785   1.445       .  S
C1785      N1787   1.157       .  T
C1786      N1788   1.157       .  T
C1789      C1790   1.410       .  A
C1789      C1794   1.417       .  A
C1790      C1791   1.405       .  A
C1790      H1795   1.084       .  S
C1791      C1792   1.415       .  A
C1791      C1798   1.444       .  S
C1792      C1793   1.408       .  A
C1793      C1794   1.392       .  A
C1793      H1796   1.085       .  S
C1794      C1797   1.446       .  S
C1797      N1799   1.157       .  T
C1798      N1800   1.157       .  T
C1801      C1802   1.398       .  A
C1801      C1806   1.408       .  A
C1802      C1803   1.395       .  A
C1802      H1807   1.085       .  S
C1803      C1804   1.413       .  A
C1803      C1810   1.445       .  S
C1804      C1805   1.401       .  A
C1805      C1806   1.398       .  A
C1805      H1808   1.085       .  S
C1806      C1809   1.442       .  S
C1809      N1811   1.156   1_655  T
C1810      N1812   1.157       .  T
C1813      C1814   1.399       .  A
C1813      C1818   1.413       .  A
C1814      C1815   1.399       .  A
C1814      H1819   1.085       .  S
C1815      C1816   1.416       .  A
C1815      C1822   1.444       .  S
C1816      C1817   1.399       .  A
C1817      C1818   1.401       .  A
C1817      H1820   1.085       .  S
C1818      C1821   1.440       .  S
C1821      N1823   1.156   1_655  T
C1822      N1824   1.157       .  T
C1825      C1826   1.404       .  A
C1825      C1830   1.414       .  A
C1826      C1827   1.397       .  A
C1826      H1831   1.085       .  S
C1827      C1828   1.408       .  A
C1827      C1834   1.444       .  S
C1828      C1829   1.404       .  A
C1829      C1830   1.398       .  A
C1829      H1832   1.085       .  S
C1830      C1833   1.446       .  S
C1833      N1835   1.158       .  T
C1834      N1836   1.157       .  T
C1837      C1838   1.410       .  A
C1837      C1842   1.416       .  A
C1838      C1839   1.401       .  A
C1838      H1843   1.084       .  S
C1839      C1840   1.412       .  A
C1839      C1846   1.444       .  S
C1840      C1841   1.404       .  A
C1841      C1842   1.396       .  A
C1841      H1844   1.085       .  S
C1842      C1845   1.444       .  S
C1845      N1847   1.157       .  T
C1846      N1848   1.157       .  T
C1849      C1850   1.406       .  A
C1849      C1854   1.415       .  A
C1850      C1851   1.405       .  A
C1850      H1855   1.085       .  S
C1851      C1852   1.423       .  A
C1851      C1858   1.445       .  S
C1852      C1853   1.406       .  A
C1853      C1854   1.398       .  A
C1853      H1856   1.084       .  S
C1854      C1857   1.445       .  S
C1857      N1859   1.157       .  T
C1858      N1860   1.158       .  T
C1861      C1862   1.405       .  A
C1861      C1866   1.409       .  A
C1862      C1863   1.402       .  A
C1862      H1867   1.085       .  S
C1863      C1864   1.415       .  A
C1863      C1870   1.444       .  S
C1864      C1865   1.407       .  A
C1865      C1866   1.394       .  A
C1865      H1868   1.085       .  S
C1866      C1869   1.445       .  S
C1869      N1871   1.157       .  T
C1870      N1872   1.157       .  T
C1873      C1874   1.404       .  A
C1873      C1878   1.414       .  A
C1874      C1875   1.392       .  A
C1874      H1879   1.085       .  S
C1875      C1876   1.418       .  A
C1875      C1882   1.445       .  S
C1876      C1877   1.408       .  A
C1877      C1878   1.399       .  A
C1877      H1880   1.084       .  S
C1878      C1881   1.444       .  S
C1881      N1883   1.157       .  T
C1882      N1884   1.157       .  T
C1885      C1886   1.402       .  A
C1885      C1890   1.412       .  A
C1886      C1887   1.397       .  A
C1886      H1891   1.085       .  S
C1887      C1888   1.416       .  A
C1887      C1894   1.445       .  S
C1888      C1889   1.405       .  A
C1889      C1890   1.398       .  A
C1889      H1892   1.085       .  S
C1890      C1893   1.445       .  S
C1893      N1895   1.157       .  T
C1894      N1896   1.157       .  T
C1897      C1898   1.401       .  A
C1897      C1902   1.413       .  A
C1898      C1899   1.400       .  A
C1898      H1903   1.085       .  S
C1899      C1900   1.415       .  A
C1899      C1906   1.442       .  S
C1900      C1901   1.404       .  A
C1901      C1902   1.399       .  A
C1901      H1904   1.085       .  S
C1902      C1905   1.444       .  S
C1905      N1907   1.157       .  T
C1906      N1908   1.156       .  T
C1909      C1910   1.407       .  A
C1909      C1914   1.410       .  A
C1910      C1911   1.404       .  A
C1910      H1915   1.082       .  S
C1911      C1912   1.413       .  A
C1911      C1918   1.443       .  S
C1912      C1913   1.410       .  A
C1913      C1914   1.396       .  A
C1913      H1916   1.084       .  S
C1914      C1917   1.445       .  S
C1917      N1919   1.157       .  T
C1918      N1920   1.157       .  T
C1921      C1922   1.407       .  A
C1921      C1926   1.420       .  A
C1922      C1923   1.404       .  A
C1922      H1927   1.084       .  S
C1923      C1924   1.420       .  A
C1923      C1930   1.444       .  S
C1924      C1925   1.404       .  A
C1925      C1926   1.395       .  A
C1925      H1928   1.085       .  S
C1926      C1929   1.445       .  S
C1929      N1931   1.157       .  T
C1930      N1932   1.157       .  T
C1933      C1934   1.403       .  A
C1933      C1938   1.422       .  A
C1934      C1935   1.392       .  A
C1934      H1939   1.085       .  S
C1935      C1936   1.418       .  A
C1935      C1942   1.446       .  S
C1936      C1937   1.404       .  A
C1937      C1938   1.399       .  A
C1937      H1940   1.085       .  S
C1938      C1941   1.445       .  S
C1941      N1943   1.158       .  T
C1942      N1944   1.157       .  T
C1945      C1946   1.400       .  A
C1945      C1950   1.415       .  A
C1946      C1947   1.399       .  A
C1946      H1951   1.085       .  S
C1947      C1948   1.417       .  A
C1947      C1954   1.443       .  S
C1948      C1949   1.406       .  A
C1949      C1950   1.401       .  A
C1949      H1952   1.085       .  S
C1950      C1953   1.445       .  S
C1953      N1955   1.157       .  T
C1954      N1956   1.157       .  T
C1957      C1958   1.401       .  A
C1957      C1962   1.409       .  A
C1958      C1959   1.398       .  A
C1958      H1963   1.085       .  S
C1959      C1960   1.413       .  A
C1959      C1966   1.442       .  S
C1960      C1961   1.406       .  A
C1961      C1962   1.402       .  A
C1961      H1964   1.085       .  S
C1962      C1965   1.444       .  S
C1965      N1967   1.157       .  T
C1966      N1968   1.156       .  T
C1969      C1970   1.406       .  A
C1969      C1974   1.422       .  A
C1970      C1971   1.401       .  A
C1970      H1975   1.084       .  S
C1971      C1972   1.418       .  A
C1971      C1978   1.445       .  S
C1972      C1973   1.402       .  A
C1973      C1974   1.395       .  A
C1973      H1976   1.085       .  S
C1974      C1977   1.446       .  S
C1977      N1979   1.157       .  T
C1978      N1980   1.157       .  T
