geometry optimzed in LAMMPS
_audit_creation_date              2020-11-30 
_audit_creation_method            'lammps2cif' 
_symmetry_space_group_name_H-M    'P1' 
_symmetry_Int_Tables_number       1 
_symmetry_cell_setting            triclinic 
loop_ 
_symmetry_equiv_pos_as_xyz 
  x,y,z 
_cell_length_a                    40.2151207 
_cell_length_b                    40.587790693212305 
_cell_length_c                    54.31661647362311 
_cell_angle_alpha                 90.61084277893406 
_cell_angle_beta                  89.51255864575457 
_cell_angle_gamma                 89.74975207505788 
loop_ 
_atom_site_label 
_atom_site_type_symbol 
_atom_site_fract_x 
_atom_site_fract_y 
_atom_site_fract_z 
_atom_site_charge 
C1          C  0.38092360  0.48897311  0.35413739     0.03200
C2          C  0.35254938  0.00899825  0.35563982    -0.12900
C3          C  0.34487320  0.02796955  0.37694427     0.00700
C4          C  0.36510254  0.02291199  0.39792915    -0.11500
C5          C  0.39459771  0.00382966  0.39659267     0.03200
C6          C  0.40322020  0.48875012  0.37358256    -0.10900
H7          H  0.33625567  0.00817995  0.34000114     0.08800
H8          H  0.35829486  0.03348748  0.41545595     0.06300
H9          H  0.42601364  0.47465373  0.37145343     0.06200
O10         O  0.36910353  0.31666670  0.21380589    -0.72800
O11         O  0.37085169  0.38652487  0.26498301    -0.73800
O12         O  0.36993645  0.38589758  0.21254695    -0.62400
O13         O  0.37225901  0.31746706  0.26628026    -0.70900
O14         O  0.42726165  0.31807363  0.26401715    -0.70400
O15         O  0.42499990  0.38511128  0.21191614    -0.61700
O16         O  0.42603853  0.38753373  0.26418441    -0.74200
O17         O  0.42411759  0.31583831  0.21153038    -0.73000
Cu18       Cu  0.36862262  0.35162126  0.23944781     1.04600
Cu19       Cu  0.42752524  0.35160157  0.23785656     1.04300
C20         C  0.39584192  0.30562088  0.20398504     0.93300
C21         C  0.39821909  0.39770769  0.27311935     0.92500
C22         C  0.39759034  0.39578942  0.20346843     0.84600
C23         C  0.40062692  0.30789947  0.27413585     0.90900
C24         C  0.40747116  0.22030793  0.35710596     0.03200
C25         C  0.38529294  0.22417512  0.37660683    -0.12900
C26         C  0.38487935  0.20186108  0.39605577     0.00700
C27         C  0.40736934  0.17483504  0.39558830    -0.11500
C28         C  0.43154949  0.17141078  0.37645655     0.03200
C29         C  0.43147892  0.19544306  0.35771258    -0.10900
H30         H  0.36796490  0.24472273  0.37646315     0.08800
H31         H  0.40542145  0.15653969  0.40978325     0.06300
H32         H  0.44989092  0.19554770  0.34317837     0.06200
C33         C  0.37940646  0.21706898  0.12088945     0.03200
C34         C  0.35436915  0.19319910  0.11959604    -0.12900
C35         C  0.35261933  0.17081496  0.09946270     0.00700
C36         C  0.37700552  0.17354390  0.08056037    -0.11500
C37         C  0.40160850  0.19810136  0.08164557     0.03200
C38         C  0.40221011  0.21991743  0.10164725    -0.10900
H39         H  0.33648598  0.19265447  0.13449428     0.08800
H40         H  0.37768071  0.15636139  0.06521043     0.06300
H41         H  0.42066676  0.23930100  0.10231200     0.06200
C42         C  0.40976067  0.48345994  0.12088110     0.03200
C43         C  0.38738705  0.48020076  0.10165384    -0.12900
C44         C  0.38780547  0.00176791  0.08206372     0.00700
C45         C  0.41175472  0.02704809  0.08144254    -0.11500
C46         C  0.43555787  0.03035713  0.10047162     0.03200
C47         C  0.43400315  0.00793877  0.12015123    -0.10900
H48         H  0.36963570  0.46016989  0.10190204     0.08800
H49         H  0.41119533  0.04419039  0.06634933     0.06300
H50         H  0.45150007  0.00906717  0.13507862     0.06200
C51         C  0.29234913  0.47799311  0.00488410     0.02400
C52         C  0.27029233  0.00434018  0.00036109     0.02300
C53         C  0.24564761  0.00048086  0.98241375    -0.18200
C54         C  0.24270888  0.47115317  0.96894428     0.02400
C55         C  0.26587366  0.44524129  0.97250980     0.02300
C56         C  0.29000747  0.44871344  0.99085109    -0.18200
H57         H  0.30732042  0.42870291  0.99396819     0.04400
H58         H  0.22895780  0.02071717  0.97850889     0.04400
C59         C  0.11285914  0.47186960  0.86090557     0.03200
C60         C  0.09188980  0.44452768  0.86017844    -0.12900
C61         C  0.09466458  0.41894350  0.87764822     0.00700
C62         C  0.11954966  0.42213838  0.89586239    -0.11500
C63         C  0.13957729  0.45052878  0.89708003     0.03200
C64         C  0.13459842  0.47589221  0.88035623    -0.10900
H65         H  0.07375973  0.44393277  0.84567994     0.08800
H66         H  0.12419715  0.40262816  0.90878383     0.06300
H67         H  0.14912533  0.49826223  0.88162519     0.06200
C68         C  0.15016609  0.24795788  0.85017160     0.03200
C69         C  0.13603452  0.23779383  0.87246723    -0.12900
C70         C  0.14877681  0.24831890  0.89528489     0.00700
C71         C  0.17573191  0.27050045  0.89542920    -0.11500
C72         C  0.18915781  0.28297221  0.87334093     0.03200
C73         C  0.17543962  0.27183978  0.85083270    -0.10900
H74         H  0.11563443  0.22059047  0.87196881     0.08800
H75         H  0.18684141  0.27732486  0.91280252     0.06300
H76         H  0.18488128  0.28081061  0.83347701     0.06200
O77         O  0.09837691  0.06006968  0.71897220    -0.72800
O78         O  0.10200016  0.14155299  0.76498319    -0.73800
O79         O  0.09711121  0.13009893  0.71290224    -0.62400
O80         O  0.09952149  0.07197770  0.77091184    -0.70900
O81         O  0.15457800  0.06866403  0.76904631    -0.70400
O82         O  0.15221793  0.13130131  0.71105789    -0.61700
O83         O  0.15663844  0.13769140  0.76275339    -0.74200
O84         O  0.15323034  0.06181626  0.71723199    -0.73000
Cu85       Cu  0.09724638  0.10095309  0.74196799     1.04600
Cu86       Cu  0.15598857  0.09982434  0.73990623     1.04300
C87         C  0.12619518  0.04806392  0.71109665     0.93300
C88         C  0.13087527  0.15210310  0.77126557     0.92500
C89         C  0.12380272  0.14034145  0.70292230     0.84600
C90         C  0.12684462  0.06116262  0.77929934     0.90900
C91         C  0.14262098  0.45636231  0.63109014     0.03200
C92         C  0.16479196  0.42957215  0.62891863    -0.12900
C93         C  0.17552287  0.41754206  0.60560355     0.00700
C94         C  0.15927380  0.42956758  0.58446449    -0.11500
C95         C  0.13619691  0.45589959  0.58635225     0.03200
C96         C  0.13047242  0.47043702  0.60957010    -0.10900
H97         H  0.17428969  0.41870583  0.64554613     0.08800
H98         H  0.16490339  0.41892864  0.56659753     0.06300
H99         H  0.11548273  0.49262191  0.61096436     0.06200
C100        C  0.11219379  0.23454344  0.62460043     0.03200
C101        C  0.09629635  0.26538431  0.62575918    -0.12900
C102        C  0.10072933  0.28854039  0.60670000     0.00700
C103        C  0.12333675  0.28041563  0.58744676    -0.11500
C104        C  0.13825551  0.24895101  0.58576235     0.03200
C105        C  0.13055599  0.22569593  0.60368332    -0.10900
H106        H  0.08027568  0.27053231  0.64139362     0.08800
H107        H  0.12957809  0.29856284  0.57372194     0.06300
H108        H  0.13959304  0.20070753  0.60188104     0.06200
C109        C  0.02382893  0.18859436  0.00180291     0.02400
C110        C  0.50058010  0.21498339  0.00455993     0.02300
C111        C  0.50431334  0.24298729  0.98981705    -0.18200
C112        C  0.03149301  0.24632336  0.97362607     0.02400
C113        C  0.05723635  0.22206113  0.97381898     0.02300
C114        C  0.05243019  0.19311802  0.98726522    -0.18200
H115        H  0.07107833  0.17377535  0.98626229     0.04400
H116        H  0.48575759  0.26208576  0.99075067     0.04400
O117        O  0.36316228  0.39172843  0.71152656    -0.72800
O118        O  0.42935792  0.38478208  0.76511858    -0.73800
O119        O  0.43377493  0.39586645  0.71353313    -0.62400
O120        O  0.35999748  0.37845565  0.76350905    -0.70900
O121        O  0.36580859  0.32487838  0.75616488    -0.70400
O122        O  0.43685319  0.34185872  0.70686769    -0.61700
O123        O  0.43515086  0.33101391  0.75846081    -0.74200
O124        O  0.36652826  0.33803697  0.70429676    -0.73000
Cu125      Cu  0.39633916  0.38961044  0.73858383     1.04600
Cu126      Cu  0.40119242  0.33211449  0.73108979     1.04300
C127        C  0.35449965  0.36643683  0.69910178     0.93300
C128        C  0.44190618  0.35709685  0.77087494     0.92500
C129        C  0.44667256  0.37095741  0.70229576     0.84600
C130        C  0.35291689  0.34849513  0.76861223     0.90900
C131        C  0.27043156  0.32397346  0.85415793     0.03200
C132        C  0.27857845  0.34146968  0.87548981    -0.12900
C133        C  0.25542776  0.34563158  0.89481589     0.00700
C134        C  0.22565963  0.32693655  0.89378080    -0.11500
C135        C  0.21911654  0.30522361  0.87369598     0.03200
C136        C  0.24169082  0.30486729  0.85368774    -0.10900
H137        H  0.30277404  0.35264275  0.87635810     0.08800
H138        H  0.20730974  0.32978517  0.90833179     0.06300
H139        H  0.23754186  0.28967259  0.83755464     0.06200
C140        C  0.02940936  0.35838604  0.85414740     0.03200
C141        C  0.05415403  0.38238678  0.85464197    -0.12900
C142        C  0.07196838  0.38940209  0.87640291     0.00700
C143        C  0.06670071  0.36849086  0.89685114    -0.11500
C144        C  0.04355110  0.34250430  0.89562214     0.03200
C145        C  0.02358934  0.33921422  0.87479100    -0.10900
H146        H  0.05840940  0.39580233  0.83788373     0.08800
H147        H  0.08016645  0.37207451  0.91378299     0.06300
H148        H  0.00365038  0.32133631  0.87449107     0.06200
C149        C  0.25914816  0.37724551  0.61983014     0.03200
C150        C  0.23021341  0.39633986  0.62183989    -0.12900
C151        C  0.20529709  0.39485310  0.60360741     0.00700
C152        C  0.21004603  0.37251977  0.58355764    -0.11500
C153        C  0.23969777  0.35371202  0.58118715     0.03200
C154        C  0.26476736  0.35826304  0.59866952    -0.10900
H155        H  0.22769949  0.41254402  0.63768509     0.08800
H156        H  0.19068223  0.36925361  0.57004908     0.06300
H157        H  0.28867139  0.34632498  0.59626767     0.06200
C158        C  0.04874820  0.36331416  0.62777385     0.03200
C159        C  0.04516371  0.37998397  0.60559337    -0.12900
C160        C  0.05662308  0.36612376  0.58333030     0.00700
C161        C  0.07439948  0.33616680  0.58395120    -0.11500
C162        C  0.08192555  0.32075110  0.60653551     0.03200
C163        C  0.06857828  0.33480624  0.62843747    -0.10900
H164        H  0.03018896  0.40226872  0.60544246     0.08800
H165        H  0.08056431  0.32388077  0.56679407     0.06300
H166        H  0.07148428  0.32272856  0.64590206     0.06200
C167        C  0.00284015  0.09109110  0.12131378     0.03200
C168        C  0.47757742  0.06748230  0.12192081    -0.12900
C169        C  0.46181912  0.05678085  0.10000555     0.00700
C170        C  0.47270692  0.07043559  0.07749133    -0.11500
C171        C  0.49696189  0.09544598  0.07689728     0.03200
C172        C  0.01066865  0.10636443  0.09919900    -0.10900
H173        H  0.47115262  0.05733450  0.13961260     0.08800
H174        H  0.46305217  0.06109367  0.06029561     0.06300
H175        H  0.02878778  0.12599857  0.09943575     0.06200
C176        C  0.28422455  0.11074474  0.11942905     0.03200
C177        C  0.30930414  0.13456418  0.12018776    -0.12900
C178        C  0.32623068  0.14440092  0.09858822     0.00700
C179        C  0.31707399  0.12917491  0.07609718    -0.11500
C180        C  0.29470809  0.10244774  0.07539591     0.03200
C181        C  0.27818611  0.09381677  0.09739178    -0.10900
H182        H  0.31459616  0.14558928  0.13787937     0.08800
H183        H  0.32651005  0.13874702  0.05902046     0.06300
H184        H  0.25964169  0.07457203  0.09737391     0.06200
O185        O  0.10730050  0.13125182  0.20944722    -0.72800
O186        O  0.17787161  0.13016508  0.26282703    -0.73800
O187        O  0.17784798  0.13135318  0.21017465    -0.62400
O188        O  0.10740595  0.13143241  0.26194759    -0.70900
O189        O  0.10677622  0.07702553  0.26197762    -0.70400
O190        O  0.17831200  0.07694559  0.20840476    -0.61700
O191        O  0.17731644  0.07571114  0.26120104    -0.74200
O192        O  0.10776802  0.07658776  0.20933862    -0.73000
Cu193      Cu  0.14263339  0.13290729  0.23613148     1.04600
Cu194      Cu  0.14255276  0.07467545  0.23522694     1.12300
C195        C  0.09710188  0.10370397  0.20068511     0.93300
C196        C  0.18830521  0.10237550  0.27071640     0.92500
C197        C  0.18877946  0.10469664  0.20043871     0.84600
C198        C  0.09598210  0.10461382  0.27057523     0.90900
C199        C  0.00397789  0.11780574  0.35331300     0.03200
C200        C  0.01250827  0.10072241  0.37441837    -0.12900
C201        C  0.49196050  0.10162419  0.39532483     0.00700
C202        C  0.46534824  0.12458785  0.39646840    -0.11500
C203        C  0.45732891  0.14396835  0.37565522     0.03200
C204        C  0.47544675  0.13759821  0.35359783    -0.10900
H205        H  0.03492201  0.08579337  0.37431201     0.08800
H206        H  0.45124472  0.12690465  0.41341747     0.06300
H207        H  0.46806445  0.14805258  0.33630324     0.06200
C208        C  0.27665290  0.08705249  0.35420129     0.03200
C209        C  0.30113406  0.06236504  0.35465742    -0.12900
C210        C  0.31707369  0.05348904  0.37681644     0.00700
C211        C  0.30716486  0.07072333  0.39849779    -0.11500
C212        C  0.28597179  0.09844324  0.39770697     0.03200
C213        C  0.27060189  0.10613974  0.37532553    -0.10900
H214        H  0.30677778  0.05027714  0.33737360     0.08800
H215        H  0.31523899  0.06270264  0.41623689     0.06300
H216        H  0.25306605  0.12641946  0.37440411     0.06200
C217        C  0.49131207  0.48352917  0.47380481     0.02400
C218        C  0.01641147  0.00670485  0.47242765     0.02300
C219        C  0.04306231  0.00541287  0.48900091    -0.18200
C220        C  0.04452549  0.48112044  0.50731841     0.02400
C221        C  0.02172625  0.45453256  0.50592802     0.02300
C222        C  0.49492304  0.45659776  0.48962845    -0.18200
H223        H  0.47682512  0.43709538  0.48915905     0.04400
H224        H  0.06175157  0.02452591  0.48887603     0.04400
C225        C  0.26077402  0.19768435  0.47296351     0.02400
C226        C  0.28229895  0.22513675  0.46960624     0.02300
C227        C  0.27926678  0.25296730  0.48515695    -0.18200
C228        C  0.25449834  0.25461681  0.50349919     0.02400
C229        C  0.23242755  0.22778362  0.50623363     0.02300
C230        C  0.23627575  0.19946529  0.49149751    -0.18200
H231        H  0.22055548  0.17844808  0.49502540     0.04400
H232        H  0.29656686  0.27319682  0.48320785     0.04400
C233        C  0.24621617  0.13036243  0.42453181    -0.20200
C234        C  0.27900418  0.11928077  0.42014780    -0.06800
C235        C  0.30446878  0.13074736  0.43599441     0.14100
C236        C  0.29629184  0.15256696  0.45534878    -0.20300
C237        C  0.26457051  0.16692245  0.45755042    -0.06800
C238        C  0.23871717  0.15444928  0.44258026     0.14100
C239        C  0.20345088  0.16714886  0.44461063    -0.23600
H240        H  0.22638765  0.12103096  0.41305328     0.15400
H241        H  0.31561681  0.16060550  0.46776312     0.15400
C242        C  0.34078733  0.12302747  0.43154669    -0.23600
H243        H  0.18755632  0.15695604  0.42976720     0.05600
H244        H  0.20273551  0.19438657  0.44325950     0.08800
H245        H  0.19221054  0.15961453  0.46235427     0.08800
H246        H  0.34758714  0.12792012  0.41207624     0.08800
H247        H  0.34628616  0.09716146  0.43615818     0.08800
H248        H  0.35712473  0.13844469  0.44330714     0.05600
C249        C  0.00310089  0.08887238  0.43968946    -0.20200
C250        C  0.49889426  0.07772231  0.41532481    -0.06800
C251        C  0.50250764  0.04358161  0.41001702     0.14100
C252        C  0.51256527  0.02222455  0.42859868    -0.20300
C253        C  0.01509117  0.03282057  0.45316522    -0.06800
C254        C  0.01040957  0.06672034  0.45879555     0.14100
C255        C  0.01162508  0.07942200  0.48491698    -0.23600
H256        H  0.00012392  0.11489999  0.44383423     0.15400
H257        H  0.51769606  0.49809139  0.42563665     0.15400
C258        C  0.49291670  0.02874329  0.38544673    -0.23600
H259        H  0.00552572  0.10611289  0.48608592     0.05600
H260        H  0.03692776  0.07605180  0.49244452     0.08800
H261        H  0.99337166  0.06601778  0.49648331     0.08800
H262        H  0.51083623  0.03553769  0.37081632     0.08800
H263        H  0.46755415  0.03714606  0.38046190     0.08800
H264        H  0.49247570  0.00139311  0.38601275     0.05600
C265        C  0.06433049  0.13801405  0.30152999    -0.20200
C266        C  0.07080533  0.10667178  0.29101566    -0.06800
C267        C  0.05370144  0.07907193  0.30070369     0.14100
C268        C  0.03131363  0.08367992  0.32053219    -0.20300
C269        C  0.02546814  0.11495342  0.33102549    -0.06800
C270        C  0.04218464  0.14248177  0.32135287     0.14100
C271        C  0.03802060  0.17647516  0.33253220    -0.23600
H272        H  0.07719755  0.15941383  0.29455695     0.15400
H273        H  0.01846675  0.06263958  0.32814644     0.15400
C274        C  0.05867562  0.04469871  0.29054586    -0.23600
H275        H  0.05469470  0.19467622  0.32366699     0.05600
H276        H  0.04402751  0.17591671  0.35243765     0.08800
H277        H  0.01215311  0.18533757  0.33016686     0.08800
H278        H  0.08485697  0.03678421  0.29312104     0.08800
H279        H  0.05234325  0.04399924  0.27069350     0.08800
H280        H  0.04257735  0.02655702  0.30004930     0.05600
C281        C  0.25583292  0.12029087  0.31881588    -0.20200
C282        C  0.25518824  0.09091456  0.33224740    -0.06800
C283        C  0.23254243  0.06597320  0.32552430     0.14100
C284        C  0.21160257  0.07070158  0.30537607    -0.20300
C285        C  0.21204217  0.09994671  0.29167906    -0.06800
C286        C  0.23457865  0.12517465  0.29859531     0.14100
C287        C  0.23689507  0.15697174  0.28466013    -0.23600
H288        H  0.27302378  0.13949083  0.32423940     0.15400
H289        H  0.19417851  0.05140916  0.30061221     0.15400
C290        C  0.22939119  0.03471659  0.34015926    -0.23600
H291        H  0.25689494  0.17307670  0.29192019     0.05600
H292        H  0.21312364  0.17082137  0.28637155     0.08800
H293        H  0.24249284  0.15170449  0.26495073     0.08800
H294        H  0.22368280  0.04086570  0.35971783     0.08800
H295        H  0.25286096  0.02031712  0.33903167     0.08800
H296        H  0.20917022  0.01869915  0.33314631     0.05600
C297        C  0.23389541  0.07893265  0.17433639    -0.20200
C298        C  0.21333353  0.10635586  0.17964796    -0.06800
C299        C  0.21633326  0.13476159  0.16464393     0.14100
C300        C  0.24000617  0.13510076  0.14555371    -0.20300
C301        C  0.26060206  0.10795576  0.14049736    -0.06800
C302        C  0.25745679  0.07940479  0.15494080     0.14100
C303        C  0.27932107  0.04977424  0.15023491    -0.23600
H304        H  0.23175010  0.05708633  0.18552547     0.15400
H305        H  0.24225023  0.15674661  0.13412171     0.15400
C306        C  0.19418524  0.16468129  0.16780251    -0.23600
H307        H  0.27452126  0.02999625  0.16376931     0.05600
H308        H  0.30586854  0.05692719  0.15155396     0.08800
H309        H  0.27451743  0.03954723  0.13161757     0.08800
H310        H  0.19910750  0.17704134  0.18571227     0.08800
H311        H  0.16767168  0.15730137  0.16669803     0.08800
H312        H  0.19868323  0.18320036  0.15324633     0.05600
C313        C  0.05670059  0.07916437  0.14043851    -0.20200
C314        C  0.02588042  0.09523095  0.14225446    -0.06800
C315        C  0.01900925  0.11583424  0.16276766     0.14100
C316        C  0.04303173  0.11917774  0.18142935    -0.20300
C317        C  0.07371277  0.10244224  0.17978711    -0.06800
C318        C  0.08084758  0.08281379  0.15864515     0.14100
C319        C  0.11404535  0.06622331  0.15406556    -0.23600
H320        H  0.06222591  0.06402081  0.12432021     0.15400
H321        H  0.03761811  0.13433694  0.19752623     0.15400
C322        C  0.48655417  0.13428488  0.16476984    -0.23600
H323        H  0.11076362  0.03907472  0.15367443     0.05600
H324        H  0.13299621  0.07254653  0.16796399     0.08800
H325        H  0.12417251  0.07407195  0.13597696     0.08800
H326        H  0.46558803  0.11658394  0.16496983     0.08800
H327        H  0.48385385  0.15086805  0.14876700     0.08800
H328        H  0.48512524  0.14951220  0.18186043     0.05600
C329        C  0.05831363  0.40970558  0.52130325    -0.20200
C330        C  0.02666617  0.42466632  0.52152973    -0.06800
C331        C  0.00309458  0.41460915  0.53937275     0.14100
C332        C  0.01310378  0.39293228  0.55791256    -0.20300
C333        C  0.04625752  0.38186904  0.55978379    -0.06800
C334        C  0.06890237  0.38950951  0.54060680     0.14100
C335        C  0.10489617  0.37906120  0.54121856    -0.23600
H336        H  0.07591322  0.41634611  0.50699356     0.15400
H337        H  0.49523465  0.38597858  0.57195728     0.15400
C338        C  0.46799338  0.42788468  0.54008495    -0.23600
H339        H  0.11985575  0.39140339  0.52674177     0.05600
H340        H  0.10717436  0.35217086  0.53791679     0.08800
H341        H  0.11576656  0.38562224  0.55928866     0.08800
H342        H  0.45401349  0.41850735  0.52400191     0.08800
H343        H  0.46797308  0.45520151  0.54008027     0.08800
H344        H  0.45433894  0.41989681  0.55683490     0.05600
C345        C  0.23765681  0.33713068  0.53644140    -0.20200
C346        C  0.24480030  0.32873657  0.56094525    -0.06800
C347        C  0.25708215  0.29651991  0.56567164     0.14100
C348        C  0.26320893  0.27474132  0.54596741    -0.20300
C349        C  0.25411796  0.28228614  0.52187310    -0.06800
C350        C  0.24176360  0.31421302  0.51690586     0.14100
C351        C  0.23244335  0.32484817  0.49140365    -0.23600
H352        H  0.22849983  0.36165446  0.53250092     0.15400
H353        H  0.27352134  0.25059166  0.54958847     0.15400
C354        C  0.26108672  0.28333031  0.59138810    -0.23600
H355        H  0.20583706  0.33225422  0.49123245     0.05600
H356        H  0.23622551  0.30516753  0.47735619     0.08800
H357        H  0.24783533  0.34629129  0.48603286     0.08800
H358        H  0.23796722  0.28784460  0.60221926     0.08800
H359        H  0.28267307  0.29431571  0.60078735     0.08800
H360        H  0.26583603  0.25639809  0.59117503     0.05600
C361        C  0.50505158  0.38271795  0.68912752    -0.20200
C362        C  0.47213591  0.37477880  0.68288820    -0.06800
C363        C  0.46475002  0.36525557  0.65850070     0.14100
C364        C  0.49035416  0.36320813  0.64104187    -0.20300
C365        C  0.52348703  0.36956185  0.64732255    -0.06800
C366        C  0.03102748  0.37989326  0.67154711     0.14100
C367        C  0.06620422  0.38763329  0.67880340    -0.23600
H368        H  0.51064127  0.38953748  0.70798530     0.15400
H369        H  0.48465810  0.35524527  0.62242894     0.15400
C370        C  0.42986690  0.35648654  0.65088116    -0.23600
H371        H  0.06758616  0.39629201  0.69823372     0.05600
H372        H  0.07629746  0.40725910  0.66683783     0.08800
H373        H  0.08202560  0.36529756  0.67679174     0.08800
H374        H  0.41297317  0.37756978  0.65472419     0.08800
H375        H  0.42104900  0.33466777  0.66114325     0.08800
H376        H  0.42843991  0.35048855  0.63091883     0.05600
C377        C  0.47572026  0.37061431  0.83500907    -0.20200
C378        C  0.50708362  0.35585291  0.83286387    -0.06800
C379        C  0.51664437  0.33998264  0.81066414     0.14100
C380        C  0.49449514  0.33969208  0.79077457    -0.20300
C381        C  0.46353599  0.35567798  0.79260473    -0.06800
C382        C  0.45387650  0.37106300  0.81511941     0.14100
C383        C  0.42048496  0.38774774  0.81852116    -0.23600
H384        H  0.96864341  0.38252185  0.85225018     0.15400
H385        H  0.50173206  0.32786358  0.77355060     0.15400
C386        C  0.55008322  0.32344277  0.80808477    -0.23600
H387        H  0.41650416  0.39639528  0.83779903     0.05600
H388        H  0.40019725  0.37036212  0.81398318     0.08800
H389        H  0.41876592  0.40963912  0.80655053     0.08800
H390        H  0.55255362  0.30418109  0.82230520     0.08800
H391        H  0.57012943  0.34186698  0.81055073     0.08800
H392        H  0.55340372  0.31160775  0.78969041     0.05600
C393        C  0.30129778  0.35813987  0.79334113    -0.20200
C394        C  0.33113965  0.34066554  0.78989782    -0.06800
C395        C  0.34046432  0.31660769  0.80740891     0.14100
C396        C  0.32010252  0.31135641  0.82813693    -0.20300
C397        C  0.29031462  0.32877122  0.83144071    -0.06800
C398        C  0.28050160  0.35207309  0.81370776     0.14100
C399        C  0.24818842  0.37076634  0.81642809    -0.23600
H400        H  0.29411794  0.37638639  0.77993875     0.15400
H401        H  0.32744707  0.29365681  0.84189757     0.15400
C402        C  0.37229229  0.29697943  0.80484292    -0.23600
H403        H  0.24440090  0.38819474  0.80106834     0.05600
H404        H  0.24797675  0.38511843  0.83392165     0.08800
H405        H  0.22707445  0.35323495  0.81652358     0.08800
H406        H  0.39389962  0.31374059  0.80335785     0.08800
H407        H  0.37127327  0.28087752  0.78823849     0.08800
H408        H  0.37639917  0.28083403  0.82092860     0.05600
C409        C  0.30800092  0.34426631  0.67403486    -0.20200
C410        C  0.33015127  0.37015608  0.67875849    -0.06800
C411        C  0.32815044  0.39903570  0.66419125     0.14100
C412        C  0.30467640  0.40072619  0.64516150    -0.20300
C413        C  0.28261251  0.37484000  0.64065236    -0.06800
C414        C  0.28382259  0.34653234  0.65563387     0.14100
C415        C  0.25937170  0.31863890  0.65324866    -0.23600
H416        H  0.30884214  0.32238979  0.68530491     0.15400
H417        H  0.30349322  0.42237736  0.63367781     0.15400
C418        C  0.35083110  0.42808472  0.66814606    -0.23600
H419        H  0.24630306  0.31521105  0.67112518     0.05600
H420        H  0.27283992  0.29553148  0.64833164     0.08800
H421        H  0.24009939  0.32311754  0.63921890     0.08800
H422        H  0.37719871  0.42010485  0.66709600     0.08800
H423        H  0.34566078  0.43966432  0.68637713     0.08800
H424        H  0.34709370  0.44733476  0.65403808     0.05600
C425        C  0.04545265  0.14779235  0.03176852    -0.20200
C426        C  0.02005464  0.15732225  0.01580021    -0.06800
C427        C  0.49028814  0.13888479  0.01560903     0.14100
C428        C  0.48329539  0.11790647  0.03534507    -0.20300
C429        C  0.50731133  0.11145609  0.05336397    -0.06800
C430        C  0.04007651  0.12342524  0.04942369     0.14100
C431        C  0.07000208  0.11057428  0.06290280    -0.23600
H432        H  0.06942625  0.15985252  0.03086146     0.15400
H433        H  0.45869257  0.10736505  0.03687994     0.15400
C434        C  0.46667508  0.14019661  0.99429084    -0.23600
H435        H  0.08916117  0.10235402  0.04930188     0.05600
H436        H  0.06414068  0.08891047  0.07438891     0.08800
H437        H  0.08067818  0.13040456  0.07460285     0.08800
H438        H  0.47996772  0.13233013  0.97721365     0.08800
H439        H  0.45694693  0.16520165  0.99166726     0.08800
H440        H  0.44511661  0.12356522  0.99699843     0.05600
C441        C  0.03253245  0.32918911  0.93984504    -0.20200
C442        C  0.03985075  0.31826800  0.91577898    -0.06800
C443        C  0.04250809  0.28405225  0.91096141     0.14100
C444        C  0.03635316  0.26183918  0.92987116    -0.20300
C445        C  0.03097259  0.27238440  0.95426033    -0.06800
C446        C  0.02795468  0.30674607  0.95923046     0.14100
C447        C  0.52004738  0.32031421  0.98459349    -0.23600
H448        H  0.53005024  0.35540911  0.94340839     0.15400
H449        H  0.03733829  0.23567332  0.92575890     0.15400
C450        C  0.05429368  0.27057997  0.88642267    -0.23600
H451        H  0.52368234  0.34741059  0.98551865     0.05600
H452        H  0.53614889  0.30908303  0.99870097     0.08800
H453        H  0.49362521  0.31571449  0.98927396     0.08800
H454        H  0.07801728  0.28265793  0.88123446     0.08800
H455        H  0.03554707  0.27468819  0.87196163     0.08800
H456        H  0.05896793  0.24360949  0.88708162     0.05600
C457        C  0.15322986  0.24954244  0.54114040    -0.20200
C458        C  0.16167459  0.24031667  0.56520830    -0.06800
C459        C  0.19255756  0.22393749  0.56907854     0.14100
C460        C  0.21355414  0.21729901  0.54888094    -0.20300
C461        C  0.20599534  0.22869960  0.52538879    -0.06800
C462        C  0.17519346  0.24422311  0.52126168     0.14100
C463        C  0.16559637  0.25511643  0.49587381    -0.23600
H464        H  0.12950520  0.26142869  0.53791488     0.15400
H465        H  0.23715952  0.20496043  0.55167821     0.15400
C466        C  0.20526758  0.21558466  0.59437881    -0.23600
H467        H  0.14056178  0.26677670  0.49578593     0.05600
H468        H  0.16530896  0.23347796  0.48319648     0.08800
H469        H  0.18378201  0.27326742  0.48890251     0.08800
H470        H  0.19239408  0.19381635  0.60186539     0.08800
H471        H  0.20225822  0.23703259  0.60706860     0.08800
H472        H  0.23206425  0.20890716  0.59384892     0.05600
C473        C  0.10336934  0.47721623  0.52191212    -0.20200
C474        C  0.06951841  0.48231805  0.52738839    -0.06800
C475        C  0.05907485  0.48303353  0.55223347     0.14100
C476        C  0.08131777  0.47379355  0.57049557    -0.20300
C477        C  0.11506547  0.46695463  0.56528521    -0.06800
C478        C  0.12653766  0.47072703  0.54064697     0.14100
C479        C  0.16272967  0.46919562  0.53339997    -0.23600
H480        H  0.11163657  0.47755023  0.50286565     0.15400
H481        H  0.07169503  0.47152549  0.58908796     0.15400
C482        C  0.02444086  0.49308024  0.56015406    -0.23600
H483        H  0.17057857  0.98909899  0.52090422     0.05600
H484        H  0.16746713  0.44695854  0.52178945     0.08800
H485        H  0.18065539  0.96775495  0.54820397     0.08800
H486        H  0.01220691  0.47239223  0.56981751     0.08800
H487        H  0.00874053  0.50076677  0.54453647     0.08800
H488        H  0.02594241  0.51436276  0.57310487     0.05600
C489        C  0.13631028  0.19459300  0.68471543    -0.20200
C490        C  0.12110497  0.16373005  0.68239160    -0.06800
C491        C  0.10139840  0.15680331  0.66151093     0.14100
C492        C  0.09764670  0.18090129  0.64335493    -0.20300
C493        C  0.11257713  0.21190612  0.64580065    -0.06800
C494        C  0.13218572  0.21883291  0.66670984     0.14100
C495        C  0.14958997  0.25142939  0.66969971    -0.23600
H496        H  0.15106382  0.19990738  0.70088110     0.15400
H497        H  0.08345540  0.17540447  0.62694714     0.15400
C498        C  0.08527520  0.12364833  0.65788609    -0.23600
H499        H  0.16450020  0.25243009  0.68680928     0.05600
H500        H  0.13099115  0.27169165  0.67066472     0.08800
H501        H  0.16664735  0.25545972  0.65384028     0.08800
H502        H  0.06657943  0.11936100  0.67262398     0.08800
H503        H  0.10448408  0.10392342  0.65830515     0.08800
H504        H  0.07229701  0.12191558  0.63994921     0.05600
C505        C  0.10087721  0.01080426  0.67924378    -0.20200
C506        C  0.12817869  0.01895216  0.69402654    -0.06800
C507        C  0.15803748  0.00026774  0.69098119     0.14100
C508        C  0.16145064  0.97851875  0.67087039    -0.20300
C509        C  0.13511033  0.47263127  0.65540472    -0.06800
C510        C  0.10349563  0.48647120  0.66140278     0.14100
C511        C  0.07212124  0.47662468  0.64827810    -0.23600
H512        H  0.07729346  0.02329899  0.68225270     0.15400
H513        H  0.18542263  0.96705638  0.66734520     0.15400
C514        C  0.18672735  0.00276715  0.70866918    -0.23600
H515        H  0.05332148  0.46847604  0.66199073     0.05600
H516        H  0.07610001  0.45574666  0.63524114     0.08800
H517        H  0.06197407  0.49800500  0.63816022     0.08800
H518        H  0.17753186  0.99979965  0.72785774     0.08800
H519        H  0.19960942  0.02669610  0.70670582     0.08800
H520        H  0.20562747  0.98319326  0.70513289     0.05600
C521        C  0.12875310  0.26012813  0.93834808    -0.20200
C522        C  0.13263684  0.23731729  0.91881097    -0.06800
C523        C  0.11817038  0.20563556  0.92152729     0.14100
C524        C  0.09454777  0.20062018  0.94026184    -0.20300
C525        C  0.08771863  0.22511038  0.95802888    -0.06800
C526        C  0.10800874  0.25345256  0.95859515     0.14100
C527        C  0.10862033  0.27608362  0.98071779    -0.23600
H528        H  0.14098811  0.28380001  0.93757237     0.15400
H529        H  0.08083721  0.17768834  0.94061204     0.15400
C530        C  0.12761413  0.17631790  0.90564769    -0.23600
H531        H  0.12703666  0.29616031  0.97842988     0.05600
H532        H  0.11554208  0.26178161  0.99722599     0.08800
H533        H  0.08417289  0.28759433  0.98397084     0.08800
H534        H  0.14918064  0.18128974  0.89342356     0.08800
H535        H  0.10601765  0.16852510  0.89442380     0.08800
H536        H  0.13502487  0.15555067  0.91760029     0.05600
C537        C  0.10761319  0.19385825  0.80143814    -0.20200
C538        C  0.13539343  0.18038371  0.78898345    -0.06800
C539        C  0.16736486  0.19370397  0.79439426     0.14100
C540        C  0.17064555  0.21711846  0.81338588    -0.20300
C541        C  0.14320253  0.22896378  0.82690631    -0.06800
C542        C  0.11103475  0.21853205  0.81971908     0.14100
C543        C  0.07982251  0.23369223  0.83029497    -0.23600
H544        H  0.08293713  0.18514056  0.79695110     0.15400
H545        H  0.19535530  0.22506223  0.81851716     0.15400
C546        C  0.19876970  0.18354750  0.78077785    -0.23600
H547        H  0.06372114  0.24222346  0.81510563     0.05600
H548        H  0.08523968  0.25552168  0.84190629     0.08800
H549        H  0.06606958  0.21518824  0.84126493     0.08800
H550        H  0.19564242  0.18728291  0.76070373     0.08800
H551        H  0.20493766  0.15744074  0.78462631     0.08800
H552        H  0.22056581  0.19839156  0.78653458     0.05600
C553        C  0.13829276  0.00748237  0.79875212    -0.20200
C554        C  0.12541508  0.03951119  0.80086721    -0.06800
C555        C  0.10830147  0.04930770  0.82265161     0.14100
C556        C  0.10408054  0.02658512  0.84170676    -0.20300
C557        C  0.11560233  0.49436378  0.83984063    -0.06800
C558        C  0.13335417  0.48480430  0.81831898     0.14100
C559        C  0.14766780  0.45057182  0.81541488    -0.23600
H560        H  0.15117475  0.00007000  0.78196001     0.15400
H561        H  0.09145043  0.03399418  0.85859916     0.15400
C562        C  0.09516283  0.08393550  0.82609297    -0.23600
H563        H  0.16135207  0.44744729  0.79769065     0.05600
H564        H  0.12736809  0.43214107  0.81585457     0.08800
H565        H  0.16525806  0.44559001  0.83059322     0.08800
H566        H  0.07551315  0.08908078  0.81243642     0.08800
H567        H  0.11573163  0.10184077  0.82378393     0.08800
H568        H  0.08410047  0.08779209  0.84471442     0.05600
C569        C  0.28184523  0.42291092  0.93163701    -0.20200
C570        C  0.26781625  0.41690323  0.95473343    -0.06800
C571        C  0.25333871  0.38591739  0.95912503     0.14100
C572        C  0.25098391  0.36273114  0.93962329    -0.20300
C573        C  0.26188782  0.37004558  0.91548275    -0.06800
C574        C  0.27766323  0.40112357  0.91168346     0.14100
C575        C  0.28773359  0.41380509  0.88666400    -0.23600
H576        H  0.29418081  0.44627819  0.92874502     0.15400
H577        H  0.23996181  0.33895133  0.94324264     0.15400
C578        C  0.24044005  0.37732903  0.98430186    -0.23600
H579        H  0.29065813  0.44099936  0.88690642     0.05600
H580        H  0.26845324  0.40803892  0.87281845     0.08800
H581        H  0.31235541  0.40384914  0.88104178     0.08800
H582        H  0.22035893  0.39464455  0.98986110     0.08800
H583        H  0.26092336  0.37894083  0.99783088     0.08800
H584        H  0.23023864  0.35195510  0.98474775     0.05600
C585        C  0.30443597  0.05131980  0.01577400    -0.20200
C586        C  0.27316736  0.03609067  0.01464346    -0.06800
C587        C  0.24764442  0.04757654  0.03064870     0.14100
C588        C  0.25480277  0.07218312  0.04821822    -0.20300
C589        C  0.28748690  0.08357435  0.05202103    -0.06800
C590        C  0.31268149  0.07305636  0.03510279     0.14100
C591        C  0.34898013  0.08117641  0.03845485    -0.23600
H592        H  0.32371277  0.04317110  0.00303303     0.15400
H593        H  0.23494931  0.08093588  0.06022717     0.15400
C594        C  0.21349087  0.03240933  0.03069510    -0.23600
H595        H  0.36522389  0.06573386  0.02632135     0.05600
H596        H  0.35653801  0.07639544  0.05770486     0.08800
H597        H  0.35389430  0.10709777  0.03350872     0.08800
H598        H  0.21545389  0.00538628  0.03336847     0.08800
H599        H  0.20080926  0.03753701  0.01311074     0.08800
H600        H  0.19755098  0.04263504  0.04575322     0.05600
C601        C  0.22284247  0.47011776  0.92583865    -0.20200
C602        C  0.21538089  0.46760570  0.95094600    -0.06800
C603        C  0.18271331  0.45959643  0.95844988     0.14100
C604        C  0.15857739  0.45300616  0.94051291    -0.20300
C605        C  0.16649740  0.45423128  0.91532553    -0.06800
C606        C  0.19940293  0.46200425  0.90791111     0.14100
C607        C  0.21066739  0.45996378  0.88130391    -0.23600
H608        H  0.24751147  0.47762115  0.92020594     0.15400
H609        H  0.13327173  0.44760190  0.94612550     0.15400
C610        C  0.17308867  0.45893518  0.98529983    -0.23600
H611        H  0.23773090  0.46438274  0.87939280     0.05600
H612        H  0.19841221  0.47877770  0.86990946     0.08800
H613        H  0.20533913  0.43504136  0.87372157     0.08800
H614        H  0.17639113  0.48379662  0.99357894     0.08800
H615        H  0.18887909  0.44117982  0.99526104     0.08800
H616        H  0.14670789  0.45169514  0.98794516     0.05600
C617        C  0.37447700  0.49051650  0.03820033    -0.20200
C618        C  0.36310794  0.49748919  0.06220102    -0.06800
C619        C  0.32854539  0.49692079  0.06730894     0.14100
C620        C  0.30651994  0.48731654  0.04874764    -0.20300
C621        C  0.31771991  0.48074679  0.02463817    -0.06800
C622        C  0.35215132  0.48267701  0.01923560     0.14100
C623        C  0.36527229  0.47795764  0.99336477    -0.23600
H624        H  0.40094367  0.49117103  0.03431668     0.15400
H625        H  0.28004165  0.48687358  0.05264334     0.15400
C626        C  0.31451924  0.50855657  0.09176577    -0.23600
H627        H  0.39254194  0.48198454  0.99228388     0.05600
H628        H  0.35317374  0.99540622  0.98085723     0.08800
H629        H  0.36032207  0.45250048  0.98682220     0.08800
H630        H  0.32368927  0.03299043  0.09597651     0.08800
H631        H  0.32175928  0.49177129  0.10675273     0.08800
H632        H  0.28691708  0.50965178  0.09157886     0.05600
C633        C  0.48424620  0.20648870  0.04820873    -0.20200
C634        C  0.47418378  0.21426801  0.02422363    -0.06800
C635        C  0.43965410  0.21791236  0.01948629     0.14100
C636        C  0.41652717  0.21121393  0.03836524    -0.20300
C637        C  0.42687679  0.20189031  0.06188615    -0.06800
C638        C  0.46121128  0.19933190  0.06682918     0.14100
C639        C  0.47378530  0.18752781  0.09133284    -0.23600
H640        H  0.51055984  0.20472213  0.05214541     0.15400
H641        H  0.39014932  0.21402174  0.03496004     0.15400
C642        C  0.42658103  0.22871300  0.99485877    -0.23600
H643        H  0.50123248  0.18434135  0.09117407     0.05600
H644        H  0.46250118  0.16333243  0.09566297     0.08800
H645        H  0.46754288  0.20545567  0.10619766     0.08800
H646        H  0.43826379  0.21455017  0.97950084     0.08800
H647        H  0.43133480  0.25533282  0.99233350     0.08800
H648        H  0.39925856  0.22525720  0.99363928     0.05600
C649        C  0.32641783  0.21352838  0.40836655    -0.20200
C650        C  0.35931148  0.20727720  0.41574595    -0.06800
C651        C  0.36748678  0.21140388  0.44089930     0.14100
C652        C  0.34220264  0.21950501  0.45805066    -0.20300
C653        C  0.30915719  0.22414462  0.45059640    -0.06800
C654        C  0.30167215  0.22307718  0.42530261     0.14100
C655        C  0.26794779  0.23314099  0.41607295    -0.23600
H656        H  0.32020216  0.21167687  0.38901914     0.15400
H657        H  0.34792791  0.22092633  0.47749734     0.15400
C658        C  0.40274088  0.20813971  0.44972532    -0.23600
H659        H  0.26678026  0.23216609  0.39565575     0.05600
H660        H  0.26238784  0.25879046  0.42217185     0.08800
H661        H  0.24850783  0.21670109  0.42329855     0.08800
H662        H  0.41911414  0.22515266  0.43936699     0.08800
H663        H  0.41167502  0.18246454  0.44715855     0.08800
H664        H  0.40478650  0.21434861  0.46961858     0.05600
C665        C  0.42752172  0.41674182  0.16705721    -0.20200
C666        C  0.39908199  0.41859232  0.18234564    -0.06800
C667        C  0.37393456  0.44191680  0.17704159     0.14100
C668        C  0.37832916  0.46300364  0.15694093    -0.20300
C669        C  0.40701433  0.46122423  0.14206462    -0.06800
C670        C  0.43167763  0.43753684  0.14692621     0.14100
C671        C  0.46179396  0.43328808  0.13043346    -0.23600
H672        H  0.44658658  0.39849695  0.17063715     0.15400
H673        H  0.35932100  0.48108904  0.15276814     0.15400
C674        C  0.34288393  0.44533227  0.19258977    -0.23600
H675        H  0.47774746  0.41245180  0.13632367     0.05600
H676        H  0.47718303  0.45587615  0.13083847     0.08800
H677        H  0.45377859  0.42821381  0.11125617     0.08800
H678        H  0.34963236  0.45047206  0.21203056     0.08800
H679        H  0.32810092  0.42235308  0.19144335     0.08800
H680        H  0.32678883  0.46583575  0.18627213     0.05600
C681        C  0.41131264  0.23617196  0.15716130    -0.20200
C682        C  0.38271519  0.23895988  0.14263439    -0.06800
C683        C  0.35915007  0.26379868  0.14804251     0.14100
C684        C  0.36436672  0.28484533  0.16821610    -0.20300
C685        C  0.39287045  0.28216866  0.18297530    -0.06800
C686        C  0.41680678  0.25753865  0.17724870     0.14100
C687        C  0.44771906  0.25311577  0.19235721    -0.23600
H688        H  0.42951258  0.21722278  0.15261648     0.15400
H689        H  0.34621347  0.30403620  0.17218932     0.15400
C690        C  0.32917848  0.26902068  0.13202838    -0.23600
H691        H  0.46272205  0.23161952  0.18587976     0.05600
H692        H  0.44079955  0.24900775  0.21191559     0.08800
H693        H  0.46363795  0.27528659  0.19092771     0.08800
H694        H  0.31290966  0.24705078  0.13250550     0.08800
H695        H  0.33731782  0.27347375  0.11276592     0.08800
H696        H  0.31411840  0.29056923  0.13830960     0.05600
C697        C  0.43043658  0.26563539  0.33228801    -0.20200
C698        C  0.40535478  0.24242244  0.33579319    -0.06800
C699        C  0.37872263  0.24051018  0.31905044     0.14100
C700        C  0.37776207  0.26218523  0.29910869    -0.20300
C701        C  0.40297851  0.28545577  0.29539695    -0.06800
C702        C  0.42963573  0.28732151  0.31239514     0.14100
C703        C  0.45682715  0.31269795  0.31039028    -0.23600
H704        H  0.45062195  0.26691375  0.34537007     0.15400
H705        H  0.35742418  0.26067384  0.28618369     0.15400
C706        C  0.35174521  0.21511636  0.32188461    -0.23600
H707        H  0.47390905  0.31192135  0.32634119     0.05600
H708        H  0.44577164  0.33780133  0.30982311     0.08800
H709        H  0.47209997  0.30800412  0.29360259     0.08800
H710        H  0.33800721  0.21926711  0.33944885     0.08800
H711        H  0.36292689  0.19005043  0.32180917     0.08800
H712        H  0.33350032  0.21626805  0.30667661     0.05600
C713        C  0.44329427  0.01297912  0.45704258    -0.20200
C714        C  0.46206146  0.48540820  0.45694185    -0.06800
C715        C  0.45613908  0.46125984  0.43856697     0.14100
C716        C  0.43247223  0.46755654  0.42035777    -0.20300
C717        C  0.41717012  0.49872903  0.41796860    -0.06800
C718        C  0.42271842  0.02141034  0.43727258     0.14100
C719        C  0.41207368  0.05699407  0.43577273    -0.23600
H720        H  0.44813600  0.03129901  0.47122066     0.15400
H721        H  0.42693112  0.44806967  0.40728734     0.15400
C722        C  0.47613741  0.42976394  0.43678530    -0.23600
H723        H  0.43226770  0.07337756  0.44231054     0.05600
H724        H  0.38999114  0.06118120  0.44778188     0.08800
H725        H  0.40704162  0.06467242  0.41664533     0.08800
H726        H  0.47018760  0.41349433  0.45243233     0.08800
H727        H  0.50312731  0.43542462  0.43654616     0.08800
H728        H  0.47059177  0.41568596  0.41966999     0.05600
C729        C  0.40803214  0.47360686  0.31416644    -0.20200
C730        C  0.38599571  0.46572288  0.33338081    -0.06800
C731        C  0.36965971  0.43506555  0.33322306     0.14100
C732        C  0.37504564  0.41323925  0.31351074    -0.20300
C733        C  0.39656496  0.42114360  0.29400363    -0.06800
C734        C  0.41345326  0.45158389  0.29431319     0.14100
C735        C  0.43598803  0.46136320  0.27338830    -0.23600
H736        H  0.42066880  0.49713184  0.31460835     0.15400
H737        H  0.36223748  0.38977864  0.31325508     0.15400
C738        C  0.34670293  0.42525728  0.35396248    -0.23600
H739        H  0.44626587  0.48646095  0.27623007     0.05600
H740        H  0.42189940  0.46119298  0.25588666     0.08800
H741        H  0.45716863  0.44383086  0.27182680     0.08800
H742        H  0.32551128  0.44280390  0.35535564     0.08800
H743        H  0.36047009  0.42541705  0.37159825     0.08800
H744        H  0.33643299  0.40016413  0.35106881     0.05600
C745        C  0.38124147  0.98945591  0.35427159     0.03200
C746        C  0.35198291  0.50813159  0.35574679    -0.12900
C747        C  0.34464735  0.52734520  0.37697741     0.00700
C748        C  0.36547072  0.52292208  0.39769998    -0.11500
C749        C  0.39522457  0.50431222  0.39609159     0.03200
C750        C  0.40300030  0.98864158  0.37401638    -0.10900
H751        H  0.33526542  0.50692515  0.34035841     0.08800
H752        H  0.35904311  0.53376888  0.41522250     0.06300
H753        H  0.42566680  0.97431548  0.37202759     0.06200
O754        O  0.36936308  0.81671900  0.21415223    -0.72800
O755        O  0.37134448  0.88667134  0.26526744    -0.73800
O756        O  0.37035959  0.88590857  0.21281719    -0.62400
O757        O  0.37255912  0.81758551  0.26660480    -0.70900
O758        O  0.42757344  0.81807699  0.26431504    -0.70400
O759        O  0.42540664  0.88509272  0.21217965    -0.61700
O760        O  0.42652167  0.88756617  0.26448266    -0.74200
O761        O  0.42437197  0.81580424  0.21181587    -0.73000
Cu762      Cu  0.36899763  0.85171144  0.23975951     1.04600
Cu763      Cu  0.42789265  0.85159257  0.23814354     1.04300
C764        C  0.39606183  0.80563472  0.20429708     0.93300
C765        C  0.39872596  0.89782014  0.27341506     0.92500
C766        C  0.39800545  0.89575903  0.20370347     0.84600
C767        C  0.40091471  0.80796252  0.27443713     0.90900
C768        C  0.40799217  0.72028197  0.35728067     0.03200
C769        C  0.38568249  0.72390182  0.37673220    -0.12900
C770        C  0.38560307  0.70170407  0.39626367     0.00700
C771        C  0.40845588  0.67499385  0.39586245    -0.11500
C772        C  0.43276161  0.67187780  0.37679882     0.03200
C773        C  0.43237630  0.69579026  0.35798612    -0.10900
H774        H  0.36807792  0.74421265  0.37652112     0.08800
H775        H  0.40669584  0.65670296  0.41007318     0.06300
H776        H  0.45085669  0.69610776  0.34350126     0.06200
C777        C  0.37923563  0.71741769  0.12103021     0.03200
C778        C  0.35413493  0.69360773  0.11968933    -0.12900
C779        C  0.35225695  0.67136789  0.09946893     0.00700
C780        C  0.37662125  0.67417034  0.08054834    -0.11500
C781        C  0.40128738  0.69866092  0.08168577     0.03200
C782        C  0.40198226  0.72035202  0.10175934    -0.10900
H783        H  0.33632273  0.69300075  0.13462765     0.08800
H784        H  0.37726578  0.65707451  0.06514691     0.06300
H785        H  0.42048905  0.73968596  0.10246827     0.06200
C786        C  0.40994659  0.98316223  0.12086062     0.03200
C787        C  0.38763191  0.97972288  0.10160218    -0.12900
C788        C  0.38771129  0.50223941  0.08211575     0.00700
C789        C  0.41182980  0.52736568  0.08149855    -0.11500
C790        C  0.43570376  0.53047946  0.10050581     0.03200
C791        C  0.43405495  0.50800534  0.12014725    -0.10900
H792        H  0.37001286  0.95957748  0.10184189     0.08800
H793        H  0.41134536  0.54453536  0.06642174     0.06300
H794        H  0.45166613  0.50888789  0.13501244     0.06200
C795        C  0.29240032  0.97762319  0.00484762     0.02400
C796        C  0.27026517  0.50469299  0.00030169     0.02300
C797        C  0.24563338  0.50075184  0.98235759    -0.18200
C798        C  0.24271228  0.97094722  0.96891987     0.02400
C799        C  0.26588116  0.94501735  0.97241432     0.02300
C800        C  0.29003696  0.94840784  0.99074643    -0.18200
H801        H  0.30735285  0.92838143  0.99380331     0.04400
H802        H  0.22892835  0.52096129  0.97840954     0.04400
C803        C  0.11330372  0.97182782  0.86037866     0.03200
C804        C  0.09226218  0.94452574  0.85975536    -0.12900
C805        C  0.09485897  0.91911543  0.87739254     0.00700
C806        C  0.11968294  0.92241874  0.89563881    -0.11500
C807        C  0.13980051  0.95075612  0.89675448     0.03200
C808        C  0.13496102  0.97597654  0.87987593    -0.10900
H809        H  0.07418056  0.94385525  0.84522739     0.08800
H810        H  0.12420848  0.90302743  0.90868131     0.06300
H811        H  0.14946386  0.99836078  0.88110261     0.06200
C812        C  0.14955862  0.74849395  0.85019121     0.03200
C813        C  0.13554663  0.73825953  0.87251284    -0.12900
C814        C  0.14843051  0.74868979  0.89530802     0.00700
C815        C  0.17544870  0.77078918  0.89540532    -0.11500
C816        C  0.18877620  0.78329566  0.87329606     0.03200
C817        C  0.17485668  0.77235124  0.85082088    -0.10900
H818        H  0.11514731  0.72105805  0.87205489     0.08800
H819        H  0.18669133  0.77750848  0.91275367     0.06300
H820        H  0.18423145  0.78139781  0.83346604     0.06200
O821        O  0.09846435  0.55977272  0.71975840    -0.72800
O822        O  0.10175833  0.64160211  0.76532800    -0.73800
O823        O  0.09715322  0.62970691  0.71334535    -0.62400
O824        O  0.09939094  0.57211695  0.77160978    -0.70900
O825        O  0.15445958  0.56881645  0.76984281    -0.70400
O826        O  0.15226756  0.63098709  0.71165689    -0.61700
O827        O  0.15641946  0.63777680  0.76330195    -0.74200
O828        O  0.15331676  0.56155908  0.71808781    -0.73000
Cu829      Cu  0.09718705  0.60082123  0.74253362     1.04600
Cu830      Cu  0.15594377  0.59974112  0.74061289     1.04300
C831        C  0.12630877  0.54774361  0.71196374     0.93300
C832        C  0.13058144  0.65225138  0.77162795     0.92500
C833        C  0.12388335  0.63994052  0.70342089     0.84600
C834        C  0.12669802  0.56136274  0.78006310     0.90900
C835        C  0.14314002  0.95675336  0.63014308     0.03200
C836        C  0.16514629  0.92980072  0.62824188    -0.12900
C837        C  0.17602685  0.91747053  0.60505618     0.00700
C838        C  0.16000605  0.92930206  0.58376465    -0.11500
C839        C  0.13711932  0.95582645  0.58534959     0.03200
C840        C  0.13133932  0.97070418  0.60845911    -0.10900
H841        H  0.17440070  0.91901869  0.64497579     0.08800
H842        H  0.16566430  0.91833467  0.56601553     0.06300
H843        H  0.11653476  0.99302439  0.60965100     0.06200
C844        C  0.11288028  0.73402648  0.62506236     0.03200
C845        C  0.09692367  0.76483697  0.62607589    -0.12900
C846        C  0.10150319  0.78793088  0.60699371     0.00700
C847        C  0.12431693  0.77975977  0.58786996    -0.11500
C848        C  0.13937212  0.74833163  0.58638126     0.03200
C849        C  0.13154232  0.72514745  0.60430951    -0.10900
H850        H  0.08074172  0.77000634  0.64161596     0.08800
H851        H  0.13061259  0.79782914  0.57410052     0.06300
H852        H  0.14068782  0.70017829  0.60263391     0.06200
C853        C  0.02369087  0.68905600  0.00196730     0.02400
C854        C  0.50045814  0.71547118  0.00470957     0.02300
C855        C  0.50425234  0.74348954  0.98998195    -0.18200
C856        C  0.03144762  0.74680276  0.97379924     0.02400
C857        C  0.05714282  0.72248950  0.97397838     0.02300
C858        C  0.05229601  0.69355153  0.98742431    -0.18200
H859        H  0.07091918  0.67418574  0.98641373     0.04400
H860        H  0.48573125  0.76262056  0.99092038     0.04400
O861        O  0.36340642  0.89161419  0.71152754    -0.72800
O862        O  0.42962713  0.88461359  0.76500992    -0.73800
O863        O  0.43404271  0.89563658  0.71341076    -0.62400
O864        O  0.36024926  0.87830236  0.76350028    -0.70900
O865        O  0.36599644  0.82472584  0.75614450    -0.70400
O866        O  0.43704129  0.84162245  0.70678973    -0.61700
O867        O  0.43534565  0.83082539  0.75841752    -0.74200
O868        O  0.36668708  0.83791592  0.70428061    -0.73000
Cu869      Cu  0.39660232  0.88944322  0.73852390     1.04600
Cu870      Cu  0.40137676  0.83193947  0.73104903     1.04300
C871        C  0.35469505  0.86634071  0.69911183     0.93300
C872        C  0.44211485  0.85692554  0.77080886     0.92500
C873        C  0.44690175  0.87069655  0.70217593     0.84600
C874        C  0.35311827  0.84834443  0.76859736     0.90900
C875        C  0.27029966  0.82377201  0.85402108     0.03200
C876        C  0.27854305  0.84123257  0.87535654    -0.12900
C877        C  0.25541284  0.84551382  0.89468580     0.00700
C878        C  0.22554085  0.82701446  0.89365796    -0.11500
C879        C  0.21885947  0.80535659  0.87358578     0.03200
C880        C  0.24141514  0.80485452  0.85355867    -0.10900
H881        H  0.30279242  0.85229318  0.87622721     0.08800
H882        H  0.20721217  0.82997299  0.90821435     0.06300
H883        H  0.23712351  0.78969550  0.83742652     0.06200
C884        C  0.02936940  0.85859295  0.85419066     0.03200
C885        C  0.05418739  0.88251837  0.85457824    -0.12900
C886        C  0.07203641  0.88964192  0.87630215     0.00700
C887        C  0.06671406  0.86887613  0.89683967    -0.11500
C888        C  0.04347950  0.84294414  0.89571937     0.03200
C889        C  0.02347615  0.83960413  0.87491594    -0.10900
H890        H  0.05848138  0.89577721  0.83775665     0.08800
H891        H  0.08022111  0.87250622  0.91374669     0.06300
H892        H  0.00347996  0.82178715  0.87468683     0.06200
C893        C  0.25952618  0.87733850  0.61982576     0.03200
C894        C  0.23054229  0.89637718  0.62166555    -0.12900
C895        C  0.20576278  0.89470908  0.60333850     0.00700
C896        C  0.21065405  0.87217253  0.58343434    -0.11500
C897        C  0.24035539  0.85340809  0.58126284     0.03200
C898        C  0.26532973  0.85822891  0.59876707    -0.10900
H899        H  0.22789562  0.91268906  0.63743842     0.08800
H900        H  0.19137163  0.86872961  0.56988571     0.06300
H901        H  0.28928824  0.84636138  0.59648517     0.06200
C902        C  0.04918033  0.86266380  0.62773139     0.03200
C903        C  0.04573407  0.87925836  0.60550478    -0.12900
C904        C  0.05743215  0.86539209  0.58329731     0.00700
C905        C  0.07525451  0.83545511  0.58405006    -0.11500
C906        C  0.08262750  0.82011080  0.60669178     0.03200
C907        C  0.06907012  0.83420147  0.62851898    -0.10900
H908        H  0.03075144  0.90153232  0.60527764     0.08800
H909        H  0.08157572  0.82310888  0.56695072     0.06300
H910        H  0.07189404  0.82220522  0.64602421     0.06200
C911        C  0.00322336  0.59099251  0.12140005     0.03200
C912        C  0.47797582  0.56733828  0.12198429    -0.12900
C913        C  0.46209349  0.55679056  0.10006822     0.00700
C914        C  0.47289772  0.57056683  0.07757412    -0.11500
C915        C  0.49712156  0.59560182  0.07700284     0.03200
C916        C  0.01089628  0.60641392  0.09930385    -0.10900
H917        H  0.47165358  0.55703347  0.13964192     0.08800
H918        H  0.46317818  0.56132328  0.06037063     0.06300
H919        H  0.02894236  0.62611504  0.09955389     0.06200
C920        C  0.28399783  0.61099427  0.11924597     0.03200
C921        C  0.30872928  0.63514410  0.12008313    -0.12900
C922        C  0.32584431  0.64495257  0.09853777     0.00700
C923        C  0.31689631  0.62961919  0.07602317    -0.11500
C924        C  0.29472173  0.60273414  0.07528328     0.03200
C925        C  0.27832658  0.59387927  0.09726082    -0.10900
H926        H  0.31365310  0.64633781  0.13777375     0.08800
H927        H  0.32633182  0.63921873  0.05895683     0.06300
H928        H  0.26015747  0.57426835  0.09729566     0.06200
O929        O  0.10776214  0.63126353  0.20959497    -0.72800
O930        O  0.17894210  0.62982260  0.26251326    -0.73800
O931        O  0.17830989  0.63075718  0.20979317    -0.62400
O932        O  0.10856850  0.63167349  0.26207857    -0.70900
O933        O  0.10733271  0.57727920  0.26211257    -0.70400
O934        O  0.17853454  0.57627321  0.20834320    -0.61700
O935        O  0.17777079  0.57535770  0.26117404    -0.74200
O936        O  0.10800088  0.57658213  0.20941283    -0.73000
Cu937      Cu  0.14345346  0.63273613  0.23601593     1.04600
Cu938      Cu  0.14290712  0.57447687  0.23525785     1.12300
C939        C  0.09733710  0.60377667  0.20088338     0.93300
C940        C  0.18902319  0.60199220  0.27056478     0.92500
C941        C  0.18891932  0.60391486  0.20013624     0.84600
C942        C  0.09698108  0.60498086  0.27079847     0.90900
C943        C  0.00613732  0.61921777  0.35410736     0.03200
C944        C  0.01489595  0.60255773  0.37534889    -0.12900
C945        C  0.49421683  0.60333909  0.39617790     0.00700
C946        C  0.46726185  0.62589737  0.39711966    -0.11500
C947        C  0.45903114  0.64492336  0.37618767     0.03200
C948        C  0.47734392  0.63863522  0.35421218    -0.10900
H949        H  0.03752062  0.58795544  0.37537676     0.08800
H950        H  0.45302614  0.62815225  0.41400765     0.06300
H951        H  0.46987096  0.64881469  0.33684509     0.06200
C952        C  0.27643622  0.58651077  0.35452516     0.03200
C953        C  0.30074032  0.56165328  0.35488606    -0.12900
C954        C  0.31675043  0.55269581  0.37698472     0.00700
C955        C  0.30698096  0.56983363  0.39872604    -0.11500
C956        C  0.28600310  0.59769741  0.39802776     0.03200
C957        C  0.27056400  0.60556684  0.37570104    -0.10900
H958        H  0.30625435  0.54952650  0.33758634     0.08800
H959        H  0.31503630  0.56164839  0.41642588     0.06300
H960        H  0.25315014  0.62595706  0.37486363     0.06200
C961        C  0.49174685  0.98163043  0.47309162     0.02400
C962        C  0.01601665  0.50858935  0.47367375     0.02300
C963        C  0.04218172  0.50718109  0.49063496    -0.18200
C964        C  0.04576017  0.97957500  0.50587761     0.02400
C965        C  0.02293320  0.95296687  0.50498027     0.02300
C966        C  0.49585109  0.95477075  0.48891054    -0.18200
H967        H  0.47780343  0.93520661  0.48870198     0.04400
H968        H  0.06088346  0.52628832  0.49085524     0.04400
C969        C  0.26204454  0.69655313  0.47376243     0.02400
C970        C  0.28342185  0.72408781  0.47028425     0.02300
C971        C  0.28043876  0.75189488  0.48585185    -0.18200
C972        C  0.25584730  0.75344579  0.50431960     0.02400
C973        C  0.23399309  0.72648156  0.50724732     0.02300
C974        C  0.23781365  0.69817677  0.49249753    -0.18200
H975        H  0.22220111  0.67710254  0.49609718     0.04400
H976        H  0.29758434  0.77223002  0.48377110     0.04400
C977        C  0.24671763  0.62964522  0.42517518    -0.20200
C978        C  0.27940977  0.61850729  0.42052481    -0.06800
C979        C  0.30513754  0.62982480  0.43619996     0.14100
C980        C  0.29730166  0.65158203  0.45566498    -0.20300
C981        C  0.26561522  0.66592133  0.45819508    -0.06800
C982        C  0.23952124  0.65359389  0.44338590     0.14100
C983        C  0.20430623  0.66634605  0.44574286    -0.23600
H984        H  0.22672238  0.62044820  0.41379670     0.15400
H985        H  0.31683531  0.65955608  0.46792295     0.15400
C986        C  0.34136581  0.62194656  0.43148547    -0.23600
H987        H  0.18817374  0.65627296  0.43099760     0.05600
H988        H  0.20362721  0.69359511  0.44448585     0.08800
H989        H  0.19331048  0.65872738  0.46354810     0.08800
H990        H  0.34798056  0.62695974  0.41199845     0.08800
H991        H  0.34674259  0.59600284  0.43593757     0.08800
H992        H  0.35793142  0.63717715  0.44320850     0.05600
C993        C  0.00420012  0.59070213  0.44069947    -0.20200
C994        C  0.50109352  0.57953366  0.41623624    -0.06800
C995        C  0.50504945  0.54539775  0.41099829     0.14100
C996        C  0.51425204  0.52406695  0.42982183    -0.20300
C997        C  0.01554167  0.53467889  0.45442915    -0.06800
C998        C  0.01056157  0.56854896  0.45997343     0.14100
C999        C  0.01028934  0.58115982  0.48614729    -0.23600
H1000       H  0.00087063  0.61670376  0.44479574     0.15400
H1001       H  0.51581520  0.99625991  0.42431003     0.15400
C1002       C  0.49656386  0.53047251  0.38622571    -0.23600
H1003       H  0.00417656  0.60785610  0.48718057     0.05600
H1004       H  0.03510867  0.57769678  0.49447440     0.08800
H1005       H  0.99135996  0.56774057  0.49709547     0.08800
H1006       H  0.51519029  0.53715214  0.37205495     0.08800
H1007       H  0.47146582  0.53887241  0.38057559     0.08800
H1008       H  0.49603729  0.50312596  0.38683766     0.05600
C1009       C  0.06578861  0.63878445  0.30176654    -0.20200
C1010       C  0.07215170  0.60730047  0.29144762    -0.06800
C1011       C  0.05536184  0.57979292  0.30157061     0.14100
C1012       C  0.03326589  0.58465435  0.32153533    -0.20300
C1013       C  0.02747989  0.61607170  0.33178488    -0.06800
C1014       C  0.04398843  0.64348480  0.32176773     0.14100
C1015       C  0.03995315  0.67759673  0.33276072    -0.23600
H1016       H  0.07846725  0.66011356  0.29449380     0.15400
H1017       H  0.02058884  0.56370708  0.32943908     0.15400
C1018       C  0.06040769  0.54524563  0.29177289    -0.23600
H1019       H  0.05639255  0.69573008  0.32358434     0.05600
H1020       H  0.04637597  0.67728403  0.35259813     0.08800
H1021       H  0.01400319  0.68635230  0.33064644     0.08800
H1022       H  0.08670370  0.53758972  0.29416040     0.08800
H1023       H  0.05368374  0.54406149  0.27200399     0.08800
H1024       H  0.04464699  0.52719023  0.30166844     0.05600
C1025       C  0.25664174  0.61944698  0.31866502    -0.20200
C1026       C  0.25498998  0.59054085  0.33259775    -0.06800
C1027       C  0.23165118  0.56608719  0.32622393     0.14100
C1028       C  0.21104092  0.57076781  0.30588462    -0.20300
C1029       C  0.21250935  0.59952380  0.29166523    -0.06800
C1030       C  0.23570664  0.62430391  0.29825764     0.14100
C1031       C  0.23908669  0.65553928  0.28375120    -0.23600
H1032       H  0.27440093  0.63826583  0.32381182     0.15400
H1033       H  0.19307463  0.55186219  0.30137154     0.15400
C1034       C  0.22752181  0.53541176  0.34139425    -0.23600
H1035       H  0.25950962  0.67127726  0.29080715     0.05600
H1036       H  0.21572875  0.67012179  0.28510068     0.08800
H1037       H  0.24466627  0.64946676  0.26416240     0.08800
H1038       H  0.22173431  0.54233447  0.36080236     0.08800
H1039       H  0.25065361  0.52044265  0.34070172     0.08800
H1040       H  0.20698795  0.51967966  0.33452403     0.05600
C1041       C  0.23629725  0.57975357  0.17548593    -0.20200
C1042       C  0.21293718  0.60535210  0.17909397    -0.06800
C1043       C  0.21275327  0.63197966  0.16229112     0.14100
C1044       C  0.23655796  0.63290193  0.14331366    -0.20300
C1045       C  0.26023743  0.60784229  0.14013317    -0.06800
C1046       C  0.25992644  0.58069811  0.15615039     0.14100
C1047       C  0.28474178  0.55308941  0.15300860    -0.23600
H1048       H  0.23637020  0.55915233  0.18801511     0.15400
H1049       H  0.23655071  0.65330110  0.13057050     0.15400
C1050       C  0.18690206  0.65906473  0.16342825    -0.23600
H1051       H  0.28157645  0.53403319  0.16735474     0.05600
H1052       H  0.31038110  0.56296427  0.15428095     0.08800
H1053       H  0.28148349  0.54107660  0.13476230     0.08800
H1054       H  0.19010847  0.67430182  0.18030600     0.08800
H1055       H  0.16159258  0.64821481  0.16314037     0.08800
H1056       H  0.18898151  0.67591089  0.14750778     0.05600
C1057       C  0.05800645  0.58120964  0.13987720    -0.20200
C1058       C  0.02626424  0.59527878  0.14236222    -0.06800
C1059       C  0.01832940  0.61395868  0.16369261     0.14100
C1060       C  0.04229186  0.61745154  0.18239083    -0.20300
C1061       C  0.07389409  0.60267048  0.18003496    -0.06800
C1062       C  0.08198840  0.58489850  0.15820141     0.14100
C1063       C  0.11596935  0.57025148  0.15312956    -0.23600
H1064       H  0.06429682  0.56745983  0.12322651     0.15400
H1065       H  0.03614140  0.63114984  0.19906256     0.15400
C1066       C  0.48486806  0.63035974  0.16650090    -0.23600
H1067       H  0.11398364  0.54304648  0.15143005     0.05600
H1068       H  0.13439042  0.57617154  0.16750883     0.08800
H1069       H  0.12591103  0.58008879  0.13555464     0.08800
H1070       H  0.46498552  0.61148095  0.16617919     0.08800
H1071       H  0.48097554  0.64776730  0.15113859     0.08800
H1072       H  0.48276635  0.64438887  0.18411730     0.05600
C1073       C  0.05949488  0.90844175  0.52098533    -0.20200
C1074       C  0.02789732  0.92351184  0.52104063    -0.06800
C1075       C  0.00430541  0.91388235  0.53901732     0.14100
C1076       C  0.01418195  0.89237266  0.55770540    -0.20300
C1077       C  0.04725503  0.88110197  0.55966471    -0.06800
C1078       C  0.06996581  0.88843300  0.54044717     0.14100
C1079       C  0.10590281  0.87779610  0.54111921    -0.23600
H1080       H  0.07711719  0.91473800  0.50660237     0.15400
H1081       H  0.49623689  0.88566032  0.57176601     0.15400
C1082       C  0.46929440  0.92741022  0.53970934    -0.23600
H1083       H  0.12095378  0.89001136  0.52663280     0.05600
H1084       H  0.10804554  0.85088847  0.53785281     0.08800
H1085       H  0.11678555  0.88435981  0.55918591     0.08800
H1086       H  0.45511563  0.91777137  0.52381130     0.08800
H1087       H  0.46945600  0.95471684  0.53937372     0.08800
H1088       H  0.45570580  0.91988981  0.55661332     0.05600
C1089       C  0.23845940  0.83623640  0.53665094    -0.20200
C1090       C  0.24562532  0.82820269  0.56121648    -0.06800
C1091       C  0.25809377  0.79612448  0.56619183     0.14100
C1092       C  0.26441096  0.77414607  0.54664771    -0.20300
C1093       C  0.25528650  0.78132338  0.52249781    -0.06800
C1094       C  0.24270702  0.81308985  0.51729117     0.14100
C1095       C  0.23324901  0.82330893  0.49171879    -0.23600
H1096       H  0.22915275  0.86064702  0.53252563     0.15400
H1097       H  0.27488361  0.75011605  0.55044595     0.15400
C1098       C  0.26207563  0.78326316  0.59200836    -0.23600
H1099       H  0.20659023  0.83052322  0.49153144     0.05600
H1100       H  0.23712170  0.80347320  0.47780920     0.08800
H1101       H  0.24847475  0.84478256  0.48616302     0.08800
H1102       H  0.23891429  0.78783146  0.60277710     0.08800
H1103       H  0.28360115  0.79442077  0.60137296     0.08800
H1104       H  0.26690996  0.75634702  0.59198151     0.05600
C1105       C  0.50529100  0.88252549  0.68896279    -0.20200
C1106       C  0.47239942  0.87443127  0.68274956    -0.06800
C1107       C  0.46509223  0.86467978  0.65839031     0.14100
C1108       C  0.49074176  0.86251530  0.64096088    -0.20300
C1109       C  0.52384784  0.86901185  0.64723156    -0.06800
C1110       C  0.03129895  0.87963919  0.67140444     0.14100
C1111       C  0.06642093  0.88769621  0.67860958    -0.23600
H1112       H  0.51083770  0.88955309  0.70778630     0.15400
H1113       H  0.48510214  0.85437377  0.62238041     0.15400
C1114       C  0.43023900  0.85581540  0.65076273    -0.23600
H1115       H  0.06776191  0.89646349  0.69801539     0.05600
H1116       H  0.07631508  0.90735978  0.66657744     0.08800
H1117       H  0.08242107  0.86547624  0.67664388     0.08800
H1118       H  0.41332199  0.87691660  0.65447473     0.08800
H1119       H  0.42140557  0.83408159  0.66111567     0.08800
H1120       H  0.42887083  0.84964517  0.63082581     0.05600
C1121       C  0.47576954  0.87079881  0.83493307    -0.20200
C1122       C  0.50708485  0.85592325  0.83289732    -0.06800
C1123       C  0.51664268  0.83981098  0.81079271     0.14100
C1124       C  0.49455674  0.83943678  0.79086766    -0.20300
C1125       C  0.46365758  0.85554844  0.79257959    -0.06800
C1126       C  0.45397644  0.87113248  0.81501613     0.14100
C1127       C  0.42060386  0.88789261  0.81831394    -0.23600
H1128       H  0.96868981  0.88287854  0.85210832     0.15400
H1129       H  0.50180005  0.82744394  0.77370766     0.15400
C1130       C  0.55000794  0.82309612  0.80835546    -0.23600
H1131       H  0.41658309  0.89665520  0.83755928     0.05600
H1132       H  0.40030299  0.87050613  0.81380170     0.08800
H1133       H  0.41895228  0.90972236  0.80627577     0.08800
H1134       H  0.55233542  0.80397006  0.82268847     0.08800
H1135       H  0.57013629  0.84144676  0.81075474     0.08800
H1136       H  0.55332557  0.81106268  0.79003148     0.05600
C1137       C  0.30139550  0.85795440  0.79325234    -0.20200
C1138       C  0.33126176  0.84050142  0.78985699    -0.06800
C1139       C  0.34048899  0.81638972  0.80735917     0.14100
C1140       C  0.32002304  0.81108016  0.82803145    -0.20300
C1141       C  0.29022035  0.82849322  0.83129510    -0.06800
C1142       C  0.28050164  0.85183656  0.81356266     0.14100
C1143       C  0.24819040  0.87054224  0.81623590    -0.23600
H1144       H  0.29427307  0.87623024  0.77985617     0.15400
H1145       H  0.32731412  0.79335792  0.84179135     0.15400
C1146       C  0.37233871  0.79678594  0.80485353    -0.23600
H1147       H  0.24448095  0.88801654  0.80089534     0.05600
H1148       H  0.24791240  0.88484510  0.83375287     0.08800
H1149       H  0.22706574  0.85302265  0.81625231     0.08800
H1150       H  0.39394012  0.81357410  0.80347277     0.08800
H1151       H  0.37142602  0.78074081  0.78821407     0.08800
H1152       H  0.37636093  0.78058434  0.82091963     0.05600
C1153       C  0.30786255  0.84447336  0.67427507    -0.20200
C1154       C  0.33033669  0.87013875  0.67880763    -0.06800
C1155       C  0.32863544  0.89891160  0.66410708     0.14100
C1156       C  0.30517563  0.90067696  0.64507909    -0.20300
C1157       C  0.28281102  0.87500118  0.64074222    -0.06800
C1158       C  0.28368206  0.84684361  0.65589000     0.14100
C1159       C  0.25890273  0.81921234  0.65366348    -0.23600
H1160       H  0.30847312  0.82270527  0.68566932     0.15400
H1161       H  0.30424977  0.92220772  0.63345773     0.15400
C1162       C  0.35161839  0.92775880  0.66792445    -0.23600
H1163       H  0.24576822  0.81614001  0.67155364     0.05600
H1164       H  0.27210241  0.79589900  0.64890390     0.08800
H1165       H  0.23970912  0.82374918  0.63958265     0.08800
H1166       H  0.37790293  0.91950888  0.66693033     0.08800
H1167       H  0.34655564  0.93954621  0.68609827     0.08800
H1168       H  0.34809118  0.94691909  0.65371899     0.05600
C1169       C  0.04537534  0.64823448  0.03190428    -0.20200
C1170       C  0.01992334  0.65778963  0.01598767    -0.06800
C1171       C  0.49016440  0.63933338  0.01583012     0.14100
C1172       C  0.48326191  0.61828032  0.03554275    -0.20300
C1173       C  0.50735180  0.61177042  0.05349742    -0.06800
C1174       C  0.04008766  0.62379450  0.04951873     0.14100
C1175       C  0.07007954  0.61092015  0.06290696    -0.23600
H1176       H  0.06933909  0.66031070  0.03097409     0.15400
H1177       H  0.45867659  0.60770551  0.03710236     0.15400
C1178       C  0.46647933  0.64066846  0.99455596    -0.23600
H1179       H  0.08920948  0.60280142  0.04925028     0.05600
H1180       H  0.06429205  0.58918272  0.07433374     0.08800
H1181       H  0.08076007  0.63070451  0.07464816     0.08800
H1182       H  0.47972870  0.63286934  0.97744393     0.08800
H1183       H  0.45669415  0.66566253  0.99198675     0.08800
H1184       H  0.44495759  0.62399381  0.99727512     0.05600
C1185       C  0.03258648  0.82967870  0.93999034    -0.20200
C1186       C  0.03980312  0.81873606  0.91591167    -0.06800
C1187       C  0.04237391  0.78450674  0.91110803     0.14100
C1188       C  0.03626100  0.76231363  0.93003928    -0.20300
C1189       C  0.03096437  0.77287433  0.95443194    -0.06800
C1190       C  0.02802191  0.80724629  0.95939258     0.14100
C1191       C  0.52018915  0.82083269  0.98476078    -0.23600
H1192       H  0.53016234  0.85590463  0.94354861     0.15400
H1193       H  0.03718234  0.73614433  0.92593277     0.15400
C1194       C  0.05400751  0.77098516  0.88654794    -0.23600
H1195       H  0.52382183  0.84793011  0.98566785     0.05600
H1196       H  0.53633404  0.80961277  0.99884548     0.08800
H1197       H  0.49378308  0.81623107  0.98948933     0.08800
H1198       H  0.07769656  0.78305497  0.88126347     0.08800
H1199       H  0.03516553  0.77505308  0.87214830     0.08800
H1200       H  0.05868684  0.74401707  0.88722447     0.05600
C1201       C  0.15458047  0.74831467  0.54181412    -0.20200
C1202       C  0.16298624  0.73957682  0.56598484    -0.06800
C1203       C  0.19392643  0.72340907  0.57008636     0.14100
C1204       C  0.21506281  0.71655673  0.54999806    -0.20300
C1205       C  0.20751179  0.72747431  0.52636905    -0.06800
C1206       C  0.17662069  0.74270771  0.52202768     0.14100
C1207       C  0.16700840  0.75299054  0.49649780    -0.23600
H1208       H  0.13080210  0.76000803  0.53842794     0.15400
H1209       H  0.23873012  0.70441610  0.55296769     0.15400
C1210       C  0.20649904  0.71547930  0.59550499    -0.23600
H1211       H  0.14189841  0.76447577  0.49624210     0.05600
H1212       H  0.16688798  0.73108207  0.48407951     0.08800
H1213       H  0.18508770  0.77110780  0.48932703     0.08800
H1214       H  0.19357883  0.69384883  0.60316689     0.08800
H1215       H  0.20340339  0.73713121  0.60798686     0.08800
H1216       H  0.23329743  0.70879799  0.59511674     0.05600
C1217       C  0.10461356  0.97566603  0.52051251    -0.20200
C1218       C  0.07081600  0.98128558  0.52588694    -0.06800
C1219       C  0.06038044  0.98293232  0.55071446     0.14100
C1220       C  0.08251652  0.97408365  0.56915489    -0.20300
C1221       C  0.11618720  0.96668229  0.56409038    -0.06800
C1222       C  0.12770705  0.96954174  0.53937662     0.14100
C1223       C  0.16388055  0.96738454  0.53215512    -0.23600
H1224       H  0.11288248  0.97527529  0.50146036     0.15400
H1225       H  0.07281768  0.97248459  0.58776779     0.15400
C1226       C  0.02581555  0.99348427  0.55843562    -0.23600
H1227       H  0.16920793  0.49141423  0.52263721     0.05600
H1228       H  0.16839614  0.94466582  0.52103221     0.08800
H1229       H  0.17950825  0.46907187  0.54944467     0.08800
H1230       H  0.01342056  0.97320050  0.56846070     0.08800
H1231       H  0.01017647  0.00077263  0.54267649     0.08800
H1232       H  0.02746888  0.01515985  0.57100352     0.05600
C1233       C  0.13682047  0.69399880  0.68512965    -0.20200
C1234       C  0.12128167  0.66329342  0.68287843    -0.06800
C1235       C  0.10138985  0.65652086  0.66206710     0.14100
C1236       C  0.09778737  0.68062380  0.64390414    -0.20300
C1237       C  0.11305869  0.71146584  0.64628391    -0.06800
C1238       C  0.13285468  0.71823539  0.66711459     0.14100
C1239       C  0.15060711  0.75066038  0.67000298    -0.23600
H1240       H  0.15171850  0.69919411  0.70124304     0.15400
H1241       H  0.08346958  0.67524774  0.62753589     0.15400
C1242       C  0.08492970  0.62351741  0.65850775    -0.23600
H1243       H  0.16556915  0.75157941  0.68708982     0.05600
H1244       H  0.13221521  0.77111064  0.67093517     0.08800
H1245       H  0.16766711  0.75444978  0.65410923     0.08800
H1246       H  0.06623159  0.61943696  0.67327869     0.08800
H1247       H  0.10394672  0.60360982  0.65891173     0.08800
H1248       H  0.07187839  0.62187845  0.64059608     0.05600
C1249       C  0.10077036  0.51006320  0.68052531    -0.20200
C1250       C  0.12829466  0.51855388  0.69497242    -0.06800
C1251       C  0.15827540  0.50012873  0.69165806     0.14100
C1252       C  0.16145608  0.47824279  0.67161261    -0.20300
C1253       C  0.13537380  0.97319121  0.65436912    -0.06800
C1254       C  0.10376263  0.98724356  0.66009914     0.14100
C1255       C  0.07253331  0.97755690  0.64672604    -0.23600
H1256       H  0.07713085  0.52236599  0.68374287     0.15400
H1257       H  0.18545528  0.46696209  0.66785105     0.15400
C1258       C  0.18737679  0.50310469  0.70893348    -0.23600
H1259       H  0.05347584  0.96956370  0.66029593     0.05600
H1260       H  0.07657060  0.95659376  0.63377561     0.08800
H1261       H  0.06268505  0.99896561  0.63648300     0.08800
H1262       H  0.17870741  0.50018039  0.72825622     0.08800
H1263       H  0.19990859  0.52717092  0.70668168     0.08800
H1264       H  0.20643125  0.48373266  0.70522146     0.05600
C1265       C  0.12864781  0.76043920  0.93843649    -0.20200
C1266       C  0.13239614  0.73766076  0.91886493    -0.06800
C1267       C  0.11788286  0.70600105  0.92158251     0.14100
C1268       C  0.09433099  0.70099530  0.94036741    -0.20300
C1269       C  0.08760746  0.72547628  0.95816306    -0.06800
C1270       C  0.10796031  0.75377327  0.95871723     0.14100
C1271       C  0.10868064  0.77637240  0.98085460    -0.23600
H1272       H  0.14093280  0.78408566  0.93765730     0.15400
H1273       H  0.08057513  0.67809056  0.94072546     0.15400
C1274       C  0.12719459  0.67670107  0.90564294    -0.23600
H1275       H  0.12712142  0.79642336  0.97854838     0.05600
H1276       H  0.11563339  0.76203628  0.99733917     0.08800
H1277       H  0.08425825  0.78791375  0.98415822     0.08800
H1278       H  0.14870629  0.68166356  0.89336337     0.08800
H1279       H  0.10552610  0.66897045  0.89447148     0.08800
H1280       H  0.13463125  0.65589511  0.91754935     0.05600
C1281       C  0.10711862  0.69398789  0.80169030    -0.20200
C1282       C  0.13493817  0.68072312  0.78916673    -0.06800
C1283       C  0.16680487  0.69441027  0.79436067     0.14100
C1284       C  0.17001214  0.71791541  0.81328665    -0.20300
C1285       C  0.14256687  0.72950731  0.82693185    -0.06800
C1286       C  0.11044040  0.71876627  0.81989323     0.14100
C1287       C  0.07916250  0.73367818  0.83055181    -0.23600
H1288       H  0.08249716  0.68499631  0.79733957     0.15400
H1289       H  0.19469436  0.72608989  0.81828327     0.15400
C1290       C  0.19817104  0.68455344  0.78057527    -0.23600
H1291       H  0.06286302  0.74197957  0.81540615     0.05600
H1292       H  0.08447509  0.75561567  0.84207143     0.08800
H1293       H  0.06567041  0.71510268  0.84163027     0.08800
H1294       H  0.19472981  0.68805224  0.76050554     0.08800
H1295       H  0.20475865  0.65857266  0.78451259     0.08800
H1296       H  0.21982817  0.69974946  0.78610517     0.05600
C1297       C  0.13809587  0.50770637  0.79945140    -0.20200
C1298       C  0.12522103  0.53972463  0.80160763    -0.06800
C1299       C  0.10801241  0.54946872  0.82335893     0.14100
C1300       C  0.10367482  0.52667727  0.84234712    -0.20300
C1301       C  0.11601887  0.99426801  0.83925280    -0.06800
C1302       C  0.13365853  0.98464300  0.81769331     0.14100
C1303       C  0.14796871  0.95040651  0.81482891    -0.23600
H1304       H  0.15104773  0.50034891  0.78267499     0.15400
H1305       H  0.09097991  0.53402890  0.85922657     0.15400
C1306       C  0.09490594  0.58410240  0.82683380    -0.23600
H1307       H  0.16155565  0.94721191  0.79707045     0.05600
H1308       H  0.12767783  0.93197118  0.81537677     0.08800
H1309       H  0.16564387  0.94549979  0.82996795     0.08800
H1310       H  0.07534724  0.58933281  0.81312452     0.08800
H1311       H  0.11551593  0.60198499  0.82462908     0.08800
H1312       H  0.08374222  0.58790105  0.84542885     0.05600
C1313       C  0.28178045  0.92278240  0.93149063    -0.20200
C1314       C  0.26779755  0.91672864  0.95459805    -0.06800
C1315       C  0.25342458  0.88569868  0.95900179     0.14100
C1316       C  0.25109708  0.86252085  0.93949809    -0.20300
C1317       C  0.26195342  0.86987537  0.91535480    -0.06800
C1318       C  0.27765586  0.90097518  0.91154249     0.14100
C1319       C  0.28773221  0.91361623  0.88651337    -0.23600
H1320       H  0.29408040  0.94616633  0.92859915     0.15400
H1321       H  0.24012343  0.83871626  0.94311281     0.15400
C1322       C  0.24060662  0.87705301  0.98419052    -0.23600
H1323       H  0.29085984  0.94078659  0.88676293     0.05600
H1324       H  0.26836148  0.90798150  0.87270548     0.08800
H1325       H  0.31225919  0.90349723  0.88083130     0.08800
H1326       H  0.22049872  0.89431547  0.98978906     0.08800
H1327       H  0.26111850  0.87869560  0.99769346     0.08800
H1328       H  0.23046693  0.85165423  0.98463456     0.05600
C1329       C  0.30438299  0.55174912  0.01560851    -0.20200
C1330       C  0.27312144  0.53649101  0.01451599    -0.06800
C1331       C  0.24762108  0.54794262  0.03055138     0.14100
C1332       C  0.25480259  0.57252512  0.04812762    -0.20300
C1333       C  0.28748807  0.58393198  0.05189230    -0.06800
C1334       C  0.31265060  0.57347900  0.03493751     0.14100
C1335       C  0.34893703  0.58165824  0.03826536    -0.23600
H1336       H  0.32364526  0.54360590  0.00285346     0.15400
H1337       H  0.23498514  0.58122014  0.06019572     0.15400
C1338       C  0.21348150  0.53274449  0.03063049    -0.23600
H1339       H  0.36518327  0.56631627  0.02606253     0.05600
H1340       H  0.35654787  0.57679381  0.05749215     0.08800
H1341       H  0.35377585  0.60762211  0.03340206     0.08800
H1342       H  0.21547254  0.50572451  0.03331063     0.08800
H1343       H  0.20077602  0.53785011  0.01305150     0.08800
H1344       H  0.19755250  0.54296502  0.04569703     0.05600
C1345       C  0.22296613  0.97025391  0.92578374    -0.20200
C1346       C  0.21542804  0.96753576  0.95086380    -0.06800
C1347       C  0.18272722  0.95949927  0.95826933     0.14100
C1348       C  0.15863677  0.95310188  0.94025575    -0.20300
C1349       C  0.16663532  0.95451846  0.91508290    -0.06800
C1350       C  0.19958538  0.96229803  0.90777342     0.14100
C1351       C  0.21099448  0.96036198  0.88119570    -0.23600
H1352       H  0.24766097  0.97777804  0.92023204     0.15400
H1353       H  0.13331530  0.94765305  0.94580213     0.15400
C1354       C  0.17302754  0.95858124  0.98509839    -0.23600
H1355       H  0.23809468  0.96463826  0.87938883     0.05600
H1356       H  0.19893078  0.97932290  0.86982782     0.08800
H1357       H  0.20557639  0.93551679  0.87350696     0.08800
H1358       H  0.17635742  0.98335092  0.99352718     0.08800
H1359       H  0.18875652  0.94068954  0.99497671     0.08800
H1360       H  0.14662653  0.95136201  0.98766232     0.05600
C1361       C  0.37455848  0.99001877  0.03815307    -0.20200
C1362       C  0.36319734  0.99691660  0.06216706    -0.06800
C1363       C  0.32864193  0.99626647  0.06729028     0.14100
C1364       C  0.30661372  0.98671272  0.04871792    -0.20300
C1365       C  0.31779630  0.98027102  0.02459043    -0.06800
C1366       C  0.35222638  0.98222082  0.01918224     0.14100
C1367       C  0.36533763  0.97757916  0.99330230    -0.23600
H1368       H  0.40102131  0.99072544  0.03425991     0.15400
H1369       H  0.28013713  0.98623029  0.05261910     0.15400
C1370       C  0.31460385  0.00776830  0.09177404    -0.23600
H1371       H  0.39260748  0.98160813  0.99222306     0.05600
H1372       H  0.35311340  0.49574699  0.98088691     0.08800
H1373       H  0.36038515  0.95214052  0.98671940     0.08800
H1374       H  0.32374520  0.53373678  0.09593190     0.08800
H1375       H  0.32194421  0.99097387  0.10672846     0.08800
H1376       H  0.28699895  0.00870586  0.09158947     0.05600
C1377       C  0.48400218  0.70691868  0.04832815    -0.20200
C1378       C  0.47401339  0.71477363  0.02434178    -0.06800
C1379       C  0.43949931  0.71850155  0.01956830     0.14100
C1380       C  0.41631415  0.71185331  0.03842291    -0.20300
C1381       C  0.42659215  0.70244398  0.06194366    -0.06800
C1382       C  0.46091149  0.69974353  0.06690572     0.14100
C1383       C  0.47341144  0.68773924  0.09137540    -0.23600
H1384       H  0.51030195  0.70508041  0.05229452     0.15400
H1385       H  0.38995116  0.71473773  0.03499261     0.15400
C1386       C  0.42650476  0.72928205  0.99491238    -0.23600
H1387       H  0.50084820  0.68446139  0.09122505     0.05600
H1388       H  0.46204868  0.66354640  0.09560622     0.08800
H1389       H  0.46720846  0.70559067  0.10629982     0.08800
H1390       H  0.43819327  0.71505359  0.97958865     0.08800
H1391       H  0.43131918  0.75588522  0.99235829     0.08800
H1392       H  0.39917821  0.72587903  0.99366347     0.05600
C1393       C  0.32713629  0.71296824  0.40881907    -0.20200
C1394       C  0.36013220  0.70693170  0.41605217    -0.06800
C1395       C  0.36845903  0.71101386  0.44118705     0.14100
C1396       C  0.34323357  0.71880609  0.45845482    -0.20300
C1397       C  0.31010635  0.72323667  0.45114420    -0.06800
C1398       C  0.30244273  0.72225535  0.42587918     0.14100
C1399       C  0.26859198  0.73216727  0.41680957    -0.23600
H1400       H  0.32078637  0.71114907  0.38949529     0.15400
H1401       H  0.34909230  0.72020357  0.47787998     0.15400
C1402       C  0.40381000  0.70810468  0.44988232    -0.23600
H1403       H  0.26728861  0.73129864  0.39639585     0.05600
H1404       H  0.26291609  0.75775090  0.42300860     0.08800
H1405       H  0.24930243  0.71557331  0.42405338     0.08800
H1406       H  0.41994379  0.72525821  0.43944972     0.08800
H1407       H  0.41298340  0.68251240  0.44732715     0.08800
H1408       H  0.40593608  0.71437765  0.46976005     0.05600
C1409       C  0.42833005  0.91728791  0.16762468    -0.20200
C1410       C  0.39948577  0.91851831  0.18252793    -0.06800
C1411       C  0.37385306  0.94109796  0.17672072     0.14100
C1412       C  0.37821045  0.96213398  0.15658756    -0.20300
C1413       C  0.40728219  0.96098683  0.14210303    -0.06800
C1414       C  0.43242229  0.93797678  0.14742083     0.14100
C1415       C  0.46298292  0.93424123  0.13131311    -0.23600
H1416       H  0.44777856  0.89958412  0.17154133     0.15400
H1417       H  0.35883954  0.97967303  0.15206475     0.15400
C1418       C  0.34223897  0.94373545  0.19170973    -0.23600
H1419       H  0.47921074  0.91375775  0.13746668     0.05600
H1420       H  0.47793242  0.95710884  0.13183733     0.08800
H1421       H  0.45550989  0.92889197  0.11205233     0.08800
H1422       H  0.34820426  0.94924332  0.21124134     0.08800
H1423       H  0.32817668  0.92032497  0.19040784     0.08800
H1424       H  0.32575307  0.96370234  0.18501182     0.05600
C1425       C  0.41123867  0.73624484  0.15735331    -0.20200
C1426       C  0.38264340  0.73919093  0.14283741    -0.06800
C1427       C  0.35918176  0.76410277  0.14830144     0.14100
C1428       C  0.36448851  0.78505967  0.16851342    -0.20300
C1429       C  0.39298962  0.78223134  0.18325990    -0.06800
C1430       C  0.41682344  0.75752399  0.17748374     0.14100
C1431       C  0.44771385  0.75293179  0.19258675    -0.23600
H1432       H  0.42936596  0.71724528  0.15276496     0.15400
H1433       H  0.34641236  0.80430971  0.17252294     0.15400
C1434       C  0.32922821  0.76949827  0.13230211    -0.23600
H1435       H  0.46263514  0.73140154  0.18606873     0.05600
H1436       H  0.44077135  0.74878238  0.21213566     0.08800
H1437       H  0.46371664  0.77504853  0.19120488     0.08800
H1438       H  0.31288800  0.74757773  0.13272490     0.08800
H1439       H  0.33738351  0.77400948  0.11305119     0.08800
H1440       H  0.31424115  0.79106958  0.13863639     0.05600
C1441       C  0.43042139  0.76616271  0.33280643    -0.20200
C1442       C  0.40578381  0.74240976  0.33599356    -0.06800
C1443       C  0.37951354  0.73999920  0.31897783     0.14100
C1444       C  0.37845186  0.76174193  0.29907805    -0.20300
C1445       C  0.40324730  0.78553333  0.29568452    -0.06800
C1446       C  0.42953223  0.78789434  0.31295125     0.14100
C1447       C  0.45619033  0.81385882  0.31125905    -0.23600
H1448       H  0.45032691  0.76781699  0.34610042     0.15400
H1449       H  0.35840384  0.75986807  0.28593037     0.15400
C1450       C  0.35305394  0.71402326  0.32149589    -0.23600
H1451       H  0.47297245  0.81342025  0.32739288     0.05600
H1452       H  0.44459994  0.83871959  0.31059082     0.08800
H1453       H  0.47187543  0.80953259  0.29462843     0.08800
H1454       H  0.33899582  0.71776750  0.33897185     0.08800
H1455       H  0.36477303  0.68919697  0.32142052     0.08800
H1456       H  0.33501398  0.71489366  0.30614211     0.05600
C1457       C  0.44371091  0.51495999  0.45643710    -0.20200
C1458       C  0.46185776  0.98354728  0.45689347    -0.06800
C1459       C  0.45553141  0.95970779  0.43839990     0.14100
C1460       C  0.43136995  0.96625934  0.42060809    -0.20300
C1461       C  0.41604863  0.99750640  0.41866074    -0.06800
C1462       C  0.42380331  0.52309416  0.43623732     0.14100
C1463       C  0.41368557  0.55877029  0.43413745    -0.23600
H1464       H  0.44824618  0.53357636  0.47045388     0.15400
H1465       H  0.42565131  0.94701930  0.40737864     0.15400
C1466       C  0.47576839  0.92842571  0.43596366    -0.23600
H1467       H  0.43510167  0.57485564  0.43851125     0.05600
H1468       H  0.39350446  0.56433243  0.44760220     0.08800
H1469       H  0.40613078  0.56559191  0.41531440     0.08800
H1470       H  0.47066623  0.91194976  0.45164963     0.08800
H1471       H  0.50268363  0.93436403  0.43516389     0.08800
H1472       H  0.46966760  0.91448476  0.41889508     0.05600
C1473       C  0.40912234  0.97354888  0.31466220    -0.20200
C1474       C  0.38636867  0.96615556  0.33353509    -0.06800
C1475       C  0.36945390  0.93581150  0.33315120     0.14100
C1476       C  0.37490311  0.91387861  0.31351364    -0.20300
C1477       C  0.39707276  0.92132651  0.29429388    -0.06800
C1478       C  0.41463631  0.95139679  0.29488857     0.14100
C1479       C  0.43803659  0.96067347  0.27435316    -0.23600
H1480       H  0.42226974  0.99678909  0.31531094     0.15400
H1481       H  0.36163145  0.89067760  0.31309858     0.15400
C1482       C  0.34582582  0.92642141  0.35359328    -0.23600
H1483       H  0.44877615  0.98554353  0.27737024     0.05600
H1484       H  0.42451103  0.96079530  0.25661006     0.08800
H1485       H  0.45887158  0.94269693  0.27316427     0.08800
H1486       H  0.32493025  0.94433959  0.35471378     0.08800
H1487       H  0.35916815  0.92633404  0.37140833     0.08800
H1488       H  0.33516586  0.90151820  0.35056739     0.05600
C1489       C  0.88092309  0.48897052  0.35413758     0.03200
C1490       C  0.85254614  0.00899434  0.35564314    -0.12900
C1491       C  0.84487114  0.02796789  0.37694679     0.00700
C1492       C  0.86510242  0.02291341  0.39793115    -0.11500
C1493       C  0.89459533  0.00382740  0.39659592     0.03200
C1494       C  0.90322079  0.48874825  0.37358211    -0.10900
H1495       H  0.83625177  0.00817491  0.34000480     0.08800
H1496       H  0.85829616  0.03349271  0.41545670     0.06300
H1497       H  0.92601426  0.47465200  0.37145261     0.06200
O1498       O  0.86910070  0.31666527  0.21380546    -0.72800
O1499       O  0.87084957  0.38652213  0.26498325    -0.73800
O1500       O  0.86993459  0.38589621  0.21254731    -0.62400
O1501       O  0.87225619  0.31746426  0.26627980    -0.70900
O1502       O  0.92725878  0.31807001  0.26401663    -0.70400
O1503       O  0.92499799  0.38510920  0.21191655    -0.61700
O1504       O  0.92603643  0.38753028  0.26418477    -0.74200
O1505       O  0.92411474  0.31583610  0.21152976    -0.73000
Cu1506     Cu  0.86862024  0.35161916  0.23944773     1.04600
Cu1507     Cu  0.92752282  0.35159868  0.23785647     1.04300
C1508       C  0.89583885  0.30561933  0.20398436     0.93300
C1509       C  0.89821707  0.39770455  0.27311966     0.92500
C1510       C  0.89758862  0.39578808  0.20346901     0.84600
C1511       C  0.90062395  0.30789600  0.27413527     0.90900
C1512       C  0.90746581  0.22030402  0.35710557     0.03200
C1513       C  0.88528734  0.22417113  0.37660627    -0.12900
C1514       C  0.88487425  0.20185772  0.39605563     0.00700
C1515       C  0.90736515  0.17483242  0.39558890    -0.11500
C1516       C  0.93154557  0.17140838  0.37645738     0.03200
C1517       C  0.93147444  0.19544004  0.35771295    -0.10900
H1518       H  0.86795893  0.24471843  0.37646230     0.08800
H1519       H  0.90541784  0.15653753  0.40978424     0.06300
H1520       H  0.94988684  0.19554489  0.34317901     0.06200
C1521       C  0.87940146  0.21707112  0.12088699     0.03200
C1522       C  0.85436419  0.19320133  0.11959327    -0.12900
C1523       C  0.85261494  0.17081695  0.09946005     0.00700
C1524       C  0.87700166  0.17354582  0.08055801    -0.11500
C1525       C  0.90160470  0.19810330  0.08164356     0.03200
C1526       C  0.90220564  0.21991950  0.10164515    -0.10900
H1527       H  0.83648093  0.19265672  0.13449139     0.08800
H1528       H  0.87767739  0.15636314  0.06520819     0.06300
H1529       H  0.92066255  0.23930280  0.10231031     0.06200
C1530       C  0.90975971  0.48346127  0.12088301     0.03200
C1531       C  0.88738685  0.48020092  0.10165537    -0.12900
C1532       C  0.88780475  0.00176774  0.08206249     0.00700
C1533       C  0.91175416  0.02704786  0.08144160    -0.11500
C1534       C  0.93555660  0.03035692  0.10047117     0.03200
C1535       C  0.93400142  0.00793831  0.12015062    -0.10900
H1536       H  0.86963607  0.46016957  0.10190355     0.08800
H1537       H  0.91119529  0.04419021  0.06634841     0.06300
H1538       H  0.95149789  0.00906661  0.13507827     0.06200
C1539       C  0.79235123  0.47799123  0.00488405     0.02400
C1540       C  0.77029012  0.00433781  0.00036082     0.02300
C1541       C  0.74564511  0.00047796  0.98241380    -0.18200
C1542       C  0.74270955  0.47115154  0.96894518     0.02400
C1543       C  0.76587427  0.44523955  0.97251044     0.02300
C1544       C  0.79000891  0.44871161  0.99085113    -0.18200
H1545       H  0.80732173  0.42870088  0.99396799     0.04400
H1546       H  0.72895539  0.02071425  0.97850866     0.04400
C1547       C  0.61285708  0.47187195  0.86090795     0.03200
C1548       C  0.59188748  0.44453017  0.86018073    -0.12900
C1549       C  0.59466200  0.41894565  0.87765030     0.00700
C1550       C  0.61954673  0.42214047  0.89586478    -0.11500
C1551       C  0.63957449  0.45053077  0.89708267     0.03200
C1552       C  0.63459617  0.47589429  0.88035882    -0.10900
H1553       H  0.57375766  0.44393551  0.84568205     0.08800
H1554       H  0.62419414  0.40263013  0.90878612     0.06300
H1555       H  0.64912373  0.49826391  0.88162771     0.06200
C1556       C  0.65016476  0.24795991  0.85016984     0.03200
C1557       C  0.63603181  0.23779685  0.87246518    -0.12900
C1558       C  0.64877395  0.24832128  0.89528300     0.00700
C1559       C  0.67572970  0.27050213  0.89542770    -0.11500
C1560       C  0.68915660  0.28297351  0.87333957     0.03200
C1561       C  0.67543898  0.27184101  0.85083117    -0.10900
H1562       H  0.61563102  0.22059432  0.87196641     0.08800
H1563       H  0.68683891  0.27732619  0.91280118     0.06300
H1564       H  0.68488154  0.28081101  0.83347551     0.06200
O1565       O  0.59837756  0.06007168  0.71896979    -0.72800
O1566       O  0.60200104  0.14155252  0.76498293    -0.73800
O1567       O  0.59711172  0.13010117  0.71290192    -0.62400
O1568       O  0.59952227  0.07197679  0.77090969    -0.70900
O1569       O  0.65457881  0.06866306  0.76904406    -0.70400
O1570       O  0.65221845  0.13130354  0.71105743    -0.61700
O1571       O  0.65663928  0.13769088  0.76275289    -0.74200
O1572       O  0.65323106  0.06181811  0.71722954    -0.73000
Cu1573     Cu  0.59724710  0.10095377  0.74196671     1.04600
Cu1574     Cu  0.65598931  0.09982496  0.73990481     1.04300
C1575       C  0.62619579  0.04806624  0.71109392     0.93300
C1576       C  0.63087621  0.15210238  0.77126538     0.92500
C1577       C  0.62380319  0.14034431  0.70292231     0.84600
C1578       C  0.62684538  0.06116121  0.77929685     0.90900
C1579       C  0.64262036  0.45635999  0.63109000     0.03200
C1580       C  0.66479157  0.42957005  0.62891838    -0.12900
C1581       C  0.67552262  0.41754033  0.60560327     0.00700
C1582       C  0.65927335  0.42956571  0.58446424    -0.11500
C1583       C  0.63619627  0.45589762  0.58635198     0.03200
C1584       C  0.63047176  0.47043483  0.60956996    -0.10900
H1585       H  0.67428950  0.41870366  0.64554579     0.08800
H1586       H  0.66490309  0.41892672  0.56659735     0.06300
H1587       H  0.61548224  0.49261980  0.61096436     0.06200
C1588       C  0.61219527  0.23455028  0.62460325     0.03200
C1589       C  0.59629911  0.26539178  0.62576224    -0.12900
C1590       C  0.60073301  0.28854780  0.60670317     0.00700
C1591       C  0.62334010  0.28042243  0.58744986    -0.11500
C1592       C  0.63825737  0.24895720  0.58576514     0.03200
C1593       C  0.63055704  0.22570229  0.60368602    -0.10900
H1594       H  0.58027845  0.27054028  0.64139660     0.08800
H1595       H  0.62958192  0.29856948  0.57372502     0.06300
H1596       H  0.63959297  0.20071352  0.60188347     0.06200
C1597       C  0.52382755  0.18859231  0.00180061     0.02400
C1598       C  0.00058163  0.21498569  0.00456154     0.02300
C1599       C  0.00431544  0.24298906  0.98981817    -0.18200
C1600       C  0.53149085  0.24632239  0.97362502     0.02400
C1601       C  0.55723469  0.22206076  0.97381767     0.02300
C1602       C  0.55242886  0.19311699  0.98726317    -0.18200
H1603       H  0.57107724  0.17377460  0.98625973     0.04400
H1604       H  0.98575992  0.26208774  0.99075141     0.04400
O1605       O  0.86316334  0.39172940  0.71152620    -0.72800
O1606       O  0.92935878  0.38478139  0.76511874    -0.73800
O1607       O  0.93377606  0.39586504  0.71353302    -0.62400
O1608       O  0.85999811  0.37845741  0.76350898    -0.70900
O1609       O  0.86580738  0.32487995  0.75616491    -0.70400
O1610       O  0.93685256  0.34185706  0.70686817    -0.61700
O1611       O  0.93514980  0.33101296  0.75846115    -0.74200
O1612       O  0.86652784  0.33803775  0.70429690    -0.73000
Cu1613     Cu  0.89634014  0.38961066  0.73858374     1.04600
Cu1614     Cu  0.90119151  0.33211446  0.73109007     1.04300
C1615       C  0.85450008  0.36643783  0.69910158     0.93300
C1616       C  0.94190617  0.35709574  0.77087512     0.92500
C1617       C  0.94667270  0.37095534  0.70229586     0.84600
C1618       C  0.85291658  0.34849715  0.76861225     0.90900
C1619       C  0.77043059  0.32397531  0.85415741     0.03200
C1620       C  0.77857751  0.34147060  0.87548962    -0.12900
C1621       C  0.75542671  0.34563204  0.89481561     0.00700
C1622       C  0.72565850  0.32693715  0.89378010    -0.11500
C1623       C  0.71911552  0.30522471  0.87369497     0.03200
C1624       C  0.74168988  0.30486912  0.85368674    -0.10900
H1625       H  0.80277319  0.35264341  0.87635823     0.08800
H1626       H  0.70730844  0.32978556  0.90833097     0.06300
H1627       H  0.73754110  0.28967502  0.83755333     0.06200
C1628       C  0.52940793  0.35838777  0.85414794     0.03200
C1629       C  0.55415170  0.38238937  0.85464322    -0.12900
C1630       C  0.57196638  0.38940370  0.87640419     0.00700
C1631       C  0.56669981  0.36849067  0.89685157    -0.11500
C1632       C  0.54355089  0.34250347  0.89562178     0.03200
C1633       C  0.52358895  0.33921421  0.87479071    -0.10900
H1634       H  0.55840625  0.39580603  0.83788537     0.08800
H1635       H  0.58016565  0.37207353  0.91378345     0.06300
H1636       H  0.50365026  0.32133602  0.87449029     0.06200
C1637       C  0.75914916  0.37724583  0.61982933     0.03200
C1638       C  0.73021392  0.39633946  0.62183932    -0.12900
C1639       C  0.70529732  0.39485201  0.60360707     0.00700
C1640       C  0.71004642  0.37251866  0.58355739    -0.11500
C1641       C  0.73969857  0.35371166  0.58118664     0.03200
C1642       C  0.76476841  0.35826334  0.59866872    -0.10900
H1643       H  0.72769977  0.41254357  0.63768454     0.08800
H1644       H  0.69068239  0.36925193  0.57004907     0.06300
H1645       H  0.78867266  0.34632579  0.59626667     0.06200
C1646       C  0.54875195  0.36332213  0.62777592     0.03200
C1647       C  0.54516730  0.37999103  0.60559498    -0.12900
C1648       C  0.55662622  0.36612962  0.58333211     0.00700
C1649       C  0.57440282  0.33617293  0.58395375    -0.11500
C1650       C  0.58192962  0.32075860  0.60653836     0.03200
C1651       C  0.56858261  0.33481458  0.62844010    -0.10900
H1652       H  0.53019219  0.40227551  0.60544356     0.08800
H1653       H  0.58056692  0.32388569  0.56679698     0.06300
H1654       H  0.57148882  0.32273739  0.64590488     0.06200
C1655       C  0.50284430  0.09109045  0.12131110     0.03200
C1656       C  0.97757393  0.06748238  0.12192216    -0.12900
C1657       C  0.96181729  0.05678124  0.10000621     0.00700
C1658       C  0.97270621  0.07043697  0.07749262    -0.11500
C1659       C  0.99696069  0.09544805  0.07689990     0.03200
C1660       C  0.51067161  0.10636273  0.09919564    -0.10900
H1661       H  0.97114821  0.05733420  0.13961364     0.08800
H1662       H  0.96305265  0.06109532  0.06029644     0.06300
H1663       H  0.52879101  0.12599666  0.09943128     0.06200
C1664       C  0.78422198  0.11074511  0.11942701     0.03200
C1665       C  0.80929956  0.13456644  0.12018542    -0.12900
C1666       C  0.82622684  0.14440228  0.09858586     0.00700
C1667       C  0.81707150  0.12917451  0.07609513    -0.11500
C1668       C  0.79470669  0.10244636  0.07539441     0.03200
C1669       C  0.77818546  0.09381505  0.09739046    -0.10900
H1670       H  0.81458978  0.14559302  0.13787680     0.08800
H1671       H  0.82650768  0.13874596  0.05901824     0.06300
H1672       H  0.75964320  0.07456815  0.09737342     0.06200
O1673       O  0.60730209  0.13125092  0.20944737    -0.72800
O1674       O  0.67787414  0.13016070  0.26282593    -0.73800
O1675       O  0.67784952  0.13134981  0.21017319    -0.62400
O1676       O  0.60740921  0.13142981  0.26194739    -0.70900
O1677       O  0.60677648  0.07702292  0.26197581    -0.70400
O1678       O  0.67831335  0.07694189  0.20840397    -0.61700
O1679       O  0.67731642  0.07570668  0.26120077    -0.74200
O1680       O  0.60776955  0.07658669  0.20933624    -0.73000
Cu1681     Cu  0.64263579  0.13290442  0.23613084     1.04600
Cu1682     Cu  0.64255353  0.07467241  0.23522559     1.12300
C1683       C  0.59710314  0.10370380  0.20068431     0.93300
C1684       C  0.68830581  0.10237086  0.27071610     0.92500
C1685       C  0.68878001  0.10469282  0.20043722     0.84600
C1686       C  0.59598414  0.10461136  0.27057436     0.90900
C1687       C  0.50397956  0.11780509  0.35331139     0.03200
C1688       C  0.51250852  0.10072023  0.37441628    -0.12900
C1689       C  0.99196012  0.10162558  0.39532700     0.00700
C1690       C  0.96534665  0.12458787  0.39647028    -0.11500
C1691       C  0.95732604  0.14396700  0.37565668     0.03200
C1692       C  0.97544353  0.13759659  0.35359922    -0.10900
H1693       H  0.53492137  0.08578987  0.37430974     0.08800
H1694       H  0.95124297  0.12690442  0.41341933     0.06300
H1695       H  0.96805960  0.14804911  0.33630437     0.06200
C1696       C  0.77664842  0.08704835  0.35420370     0.03200
C1697       C  0.80112962  0.06236088  0.35465996    -0.12900
C1698       C  0.81707032  0.05348623  0.37681890     0.00700
C1699       C  0.80716061  0.07072033  0.39850021    -0.11500
C1700       C  0.78596662  0.09843964  0.39770928     0.03200
C1701       C  0.77059697  0.10613569  0.37532774    -0.10900
H1702       H  0.80677281  0.05027200  0.33737635     0.08800
H1703       H  0.81523467  0.06269964  0.41623946     0.06300
H1704       H  0.75306096  0.12641525  0.37440601     0.06200
C1705       C  0.99131361  0.48352956  0.47380462     0.02400
C1706       C  0.51640722  0.00670430  0.47242685     0.02300
C1707       C  0.54305970  0.00541180  0.48899862    -0.18200
C1708       C  0.54452465  0.48111999  0.50731803     0.02400
C1709       C  0.52172547  0.45453205  0.50592767     0.02300
C1710       C  0.99492416  0.45659834  0.48962853    -0.18200
H1711       H  0.97682614  0.43709611  0.48915914     0.04400
H1712       H  0.56175000  0.02452382  0.48887208     0.04400
C1713       C  0.76076816  0.19768404  0.47296309     0.02400
C1714       C  0.78229341  0.22513602  0.46960511     0.02300
C1715       C  0.77926252  0.25296666  0.48515574    -0.18200
C1716       C  0.75449522  0.25461656  0.50349872     0.02400
C1717       C  0.73242405  0.22778385  0.50623394     0.02300
C1718       C  0.73627068  0.19946549  0.49149763    -0.18200
H1719       H  0.72055005  0.17844864  0.49502587     0.04400
H1720       H  0.79656293  0.27319582  0.48320615     0.04400
C1721       C  0.74621029  0.13035986  0.42453318    -0.20200
C1722       C  0.77899838  0.11927781  0.42014975    -0.06800
C1723       C  0.80446274  0.13074558  0.43599605     0.14100
C1724       C  0.79628557  0.15256574  0.45534993    -0.20300
C1725       C  0.76456440  0.16692154  0.45755080    -0.06800
C1726       C  0.73871125  0.15444806  0.44258066     0.14100
C1727       C  0.70344530  0.16714883  0.44461001    -0.23600
H1728       H  0.72638188  0.12102792  0.41305475     0.15400
H1729       H  0.81561040  0.16060484  0.46776420     0.15400
C1730       C  0.84078127  0.12302639  0.43154838    -0.23600
H1731       H  0.68755082  0.15695531  0.42976679     0.05600
H1732       H  0.70273075  0.19438644  0.44325772     0.08800
H1733       H  0.69220435  0.15961638  0.46235389     0.08800
H1734       H  0.84758105  0.12791880  0.41207790     0.08800
H1735       H  0.84627980  0.09716063  0.43616005     0.08800
H1736       H  0.85711854  0.13844379  0.44330882     0.05600
C1737       C  0.50310255  0.08887152  0.43968691    -0.20200
C1738       C  0.99889448  0.07772369  0.41532701    -0.06800
C1739       C  0.00251070  0.04358342  0.41001872     0.14100
C1740       C  0.01257065  0.02222668  0.42859990    -0.20300
C1741       C  0.51508701  0.03281911  0.45316377    -0.06800
C1742       C  0.51040921  0.06671954  0.45879339     0.14100
C1743       C  0.51162695  0.07942228  0.48491445    -0.23600
H1744       H  0.50012812  0.11489957  0.44383116     0.15400
H1745       H  0.01769609  0.49809403  0.42563631     0.15400
C1746       C  0.99291970  0.02874480  0.38544855    -0.23600
H1747       H  0.50553012  0.10611376  0.48608284     0.05600
H1748       H  0.53692963  0.07605022  0.49244153     0.08800
H1749       H  0.49337273  0.06602026  0.49648154     0.08800
H1750       H  0.01083814  0.03554048  0.37081778     0.08800
H1751       H  0.96755635  0.03714599  0.38046440     0.08800
H1752       H  0.99248045  0.00139458  0.38601439     0.05600
C1753       C  0.56433686  0.13801159  0.30153133    -0.20200
C1754       C  0.57080803  0.10666972  0.29101510    -0.06800
C1755       C  0.55370114  0.07907067  0.30070151     0.14100
C1756       C  0.53131291  0.08367923  0.32052967    -0.20300
C1757       C  0.52547038  0.11495244  0.33102434    -0.06800
C1758       C  0.54219091  0.14247976  0.32135403     0.14100
C1759       C  0.53803091  0.17647224  0.33253571    -0.23600
H1760       H  0.57720684  0.15941061  0.29455991     0.15400
H1761       H  0.51846346  0.06263956  0.32814262     0.15400
C1762       C  0.55867260  0.04469777  0.29054237    -0.23600
H1763       H  0.55470740  0.19467241  0.32367192     0.05600
H1764       H  0.54403750  0.17591047  0.35244115     0.08800
H1765       H  0.51216447  0.18533803  0.33017090     0.08800
H1766       H  0.58485320  0.03678085  0.29311766     0.08800
H1767       H  0.55234082  0.04400028  0.27068988     0.08800
H1768       H  0.54257246  0.02655675  0.30004481     0.05600
C1769       C  0.75583418  0.12028409  0.31881526    -0.20200
C1770       C  0.75518392  0.09091055  0.33224987    -0.06800
C1771       C  0.73253309  0.06597237  0.32552984     0.14100
C1772       C  0.71159497  0.07070007  0.30538046    -0.20300
C1773       C  0.71204081  0.09994212  0.29167990    -0.06800
C1774       C  0.73458106  0.12516775  0.29859406     0.14100
C1775       C  0.73690258  0.15696218  0.28465598    -0.23600
H1776       H  0.77302844  0.13948199  0.32423688     0.15400
H1777       H  0.69416733  0.05141001  0.30061851     0.15400
C1778       C  0.72937522  0.03472026  0.34016927    -0.23600
H1779       H  0.75690474  0.17306535  0.29191479     0.05600
H1780       H  0.71313320  0.17081557  0.28636596     0.08800
H1781       H  0.74249987  0.15169096  0.26494708     0.08800
H1782       H  0.72366608  0.04087556  0.35972671     0.08800
H1783       H  0.75284290  0.02031701  0.33904511     0.08800
H1784       H  0.70915219  0.01870435  0.33315766     0.05600
C1785       C  0.73390632  0.07893560  0.17434131    -0.20200
C1786       C  0.71333157  0.10635174  0.17964525    -0.06800
C1787       C  0.71631605  0.13475065  0.16463267     0.14100
C1788       C  0.73998923  0.13509215  0.14554268    -0.20300
C1789       C  0.76059924  0.10795506  0.14049476    -0.06800
C1790       C  0.75746750  0.07940960  0.15494564     0.14100
C1791       C  0.77934543  0.04978716  0.15024673    -0.23600
H1792       H  0.73177163  0.05709408  0.18553668     0.15400
H1793       H  0.74222262  0.15673317  0.13410449     0.15400
C1794       C  0.69415037  0.16465911  0.16778173    -0.23600
H1795       H  0.77455316  0.03001181  0.16378472     0.05600
H1796       H  0.80588947  0.05695248  0.15156583     0.08800
H1797       H  0.77454828  0.03955201  0.13163076     0.08800
H1798       H  0.69906652  0.17703351  0.18568698     0.08800
H1799       H  0.66764121  0.15726263  0.16668118     0.08800
H1800       H  0.69863611  0.18317138  0.15321869     0.05600
C1801       C  0.55671331  0.07918181  0.14042994    -0.20200
C1802       C  0.52588508  0.09523250  0.14225148    -0.06800
C1803       C  0.51900447  0.11582068  0.16277153     0.14100
C1804       C  0.54302592  0.11916480  0.18143392    -0.20300
C1805       C  0.57371463  0.10244415  0.17978608    -0.06800
C1806       C  0.58085836  0.08283099  0.15863804     0.14100
C1807       C  0.61406298  0.06625600  0.15405461    -0.23600
H1808       H  0.56224548  0.06404946  0.12430705     0.15400
H1809       H  0.53760564  0.13431235  0.19753570     0.15400
C1810       C  0.98656743  0.13431416  0.16475964    -0.23600
H1811       H  0.61079158  0.03910629  0.15365212     0.05600
H1812       H  0.63300879  0.07257558  0.16795775     0.08800
H1813       H  0.62418995  0.07412164  0.13597025     0.08800
H1814       H  0.96559310  0.11662278  0.16496430     0.08800
H1815       H  0.98387564  0.15088991  0.14875170     0.08800
H1816       H  0.98514464  0.14955110  0.18184572     0.05600
C1817       C  0.55831283  0.40970493  0.52130237    -0.20200
C1818       C  0.52666560  0.42466608  0.52152946    -0.06800
C1819       C  0.50309499  0.41461040  0.53937359     0.14100
C1820       C  0.51310535  0.39293554  0.55791435    -0.20300
C1821       C  0.54625925  0.38187260  0.55978507    -0.06800
C1822       C  0.56890268  0.38951043  0.54060649     0.14100
C1823       C  0.60489620  0.37906091  0.54121678    -0.23600
H1824       H  0.57591147  0.41634416  0.50699169     0.15400
H1825       H  0.99523227  0.38597394  0.57195454     0.15400
C1826       C  0.96799312  0.42788391  0.54008413    -0.23600
H1827       H  0.61985497  0.39140193  0.52673896     0.05600
H1828       H  0.60717315  0.35217037  0.53791548     0.08800
H1829       H  0.61576842  0.38562228  0.55928617     0.08800
H1830       H  0.95401330  0.41850762  0.52400074     0.08800
H1831       H  0.96797317  0.45520075  0.54008029     0.08800
H1832       H  0.95433828  0.41989536  0.55683372     0.05600
C1833       C  0.73765629  0.33713044  0.53644106    -0.20200
C1834       C  0.74480106  0.32873637  0.56094469    -0.06800
C1835       C  0.75708353  0.29651984  0.56567080     0.14100
C1836       C  0.76320897  0.27474111  0.54596646    -0.20300
C1837       C  0.75411647  0.28228590  0.52187247    -0.06800
C1838       C  0.74176209  0.31421280  0.51690547     0.14100
C1839       C  0.73244078  0.32484800  0.49140348    -0.23600
H1840       H  0.72849901  0.36165417  0.53250081     0.15400
H1841       H  0.77352139  0.25059138  0.54958722     0.15400
C1842       C  0.76109018  0.28333052  0.59138716    -0.23600
H1843       H  0.70583453  0.33225422  0.49123291     0.05600
H1844       H  0.73622225  0.30516737  0.47735592     0.08800
H1845       H  0.74783266  0.34629103  0.48603232     0.08800
H1846       H  0.73797153  0.28784489  0.60221928     0.08800
H1847       H  0.78267727  0.29431610  0.60078539     0.08800
H1848       H  0.76583953  0.25639829  0.59117405     0.05600
C1849       C  0.00505162  0.38271294  0.68912622    -0.20200
C1850       C  0.97213529  0.37477539  0.68288775    -0.06800
C1851       C  0.96474776  0.36525191  0.65850059     0.14100
C1852       C  0.99035106  0.36320238  0.64104125    -0.20300
C1853       C  0.02348447  0.36955471  0.64732107    -0.06800
C1854       C  0.53102843  0.37989986  0.67154903     0.14100
C1855       C  0.56620454  0.38764061  0.67880655    -0.23600
H1856       H  0.01064248  0.38953270  0.70798376     0.15400
H1857       H  0.98465382  0.35523933  0.62242856     0.15400
C1858       C  0.92986372  0.35648495  0.65088197    -0.23600
H1859       H  0.56758510  0.39629918  0.69823698     0.05600
H1860       H  0.57629820  0.40726664  0.66684145     0.08800
H1861       H  0.58202652  0.36530524  0.67679531     0.08800
H1862       H  0.91297158  0.37756940  0.65472505     0.08800
H1863       H  0.92104472  0.33466706  0.66114459     0.08800
H1864       H  0.92843553  0.35048652  0.63091978     0.05600
C1865       C  0.97572033  0.37060984  0.83500956    -0.20200
C1866       C  0.00708481  0.35585090  0.83286339    -0.06800
C1867       C  0.01664631  0.33998319  0.81066277     0.14100
C1868       C  0.99449660  0.33969265  0.79077345    -0.20300
C1869       C  0.96353631  0.35567619  0.79260469    -0.06800
C1870       C  0.95387620  0.37105872  0.81512011     0.14100
C1871       C  0.92048368  0.38774119  0.81852275    -0.23600
H1872       H  0.46864390  0.38252816  0.85224913     0.15400
H1873       H  0.00173401  0.32786615  0.77354885     0.15400
C1874       C  0.05008633  0.32344588  0.80808213    -0.23600
H1875       H  0.91650278  0.39638750  0.83780090     0.05600
H1876       H  0.90019701  0.37035453  0.81398450     0.08800
H1877       H  0.91876291  0.40963302  0.80655272     0.08800
H1878       H  0.05255869  0.30418310  0.82230156     0.08800
H1879       H  0.07013129  0.34187131  0.81054852     0.08800
H1880       H  0.05340711  0.31161263  0.78968716     0.05600
C1881       C  0.80129961  0.35814571  0.79334275    -0.20200
C1882       C  0.83113930  0.34066819  0.78989791    -0.06800
C1883       C  0.84046188  0.31660764  0.80740758     0.14100
C1884       C  0.82009982  0.31135623  0.82813540    -0.20300
C1885       C  0.79031391  0.32877390  0.83144050    -0.06800
C1886       C  0.78050329  0.35207913  0.81370930     0.14100
C1887       C  0.74819238  0.37077587  0.81643127    -0.23600
H1888       H  0.79412151  0.37639449  0.77994157     0.15400
H1889       H  0.82744263  0.29365429  0.84189487     0.15400
C1890       C  0.87228793  0.29697650  0.80484042    -0.23600
H1891       H  0.74440643  0.38820633  0.80107261     0.05600
H1892       H  0.74798292  0.38512620  0.83392558     0.08800
H1893       H  0.72707636  0.35324692  0.81652623     0.08800
H1894       H  0.89389691  0.31373564  0.80335572     0.08800
H1895       H  0.87126697  0.28087576  0.78823545     0.08800
H1896       H  0.87639364  0.28082960  0.82092543     0.05600
C1897       C  0.80800165  0.34426729  0.67403440    -0.20200
C1898       C  0.83015190  0.37015713  0.67875810    -0.06800
C1899       C  0.82815127  0.39903657  0.66419062     0.14100
C1900       C  0.80467756  0.40072674  0.64516059    -0.20300
C1901       C  0.78261364  0.37484052  0.64065151    -0.06800
C1902       C  0.78382354  0.34653309  0.65563324     0.14100
C1903       C  0.75937265  0.31863963  0.65324811    -0.23600
H1904       H  0.80884270  0.32239088  0.68530458     0.15400
H1905       H  0.80349453  0.42237776  0.63367673     0.15400
C1906       C  0.85083158  0.42808579  0.66814561    -0.23600
H1907       H  0.74630389  0.31521199  0.67112461     0.05600
H1908       H  0.77284089  0.29553216  0.64833126     0.08800
H1909       H  0.74010042  0.32311811  0.63921827     0.08800
H1910       H  0.87719929  0.42010622  0.66709581     0.08800
H1911       H  0.84566084  0.43966534  0.68637664     0.08800
H1912       H  0.84709422  0.44733578  0.65403758     0.05600
C1913       C  0.54545242  0.14778855  0.03176446    -0.20200
C1914       C  0.52005360  0.15731959  0.01579723    -0.06800
C1915       C  0.99028944  0.13888709  0.01561150     0.14100
C1916       C  0.98329615  0.11790891  0.03534750    -0.20300
C1917       C  0.00731120  0.11145916  0.05336718    -0.06800
C1918       C  0.54007675  0.12342107  0.04941938     0.14100
C1919       C  0.57000272  0.11056863  0.06289720    -0.23600
H1920       H  0.56942628  0.15984815  0.03085687     0.15400
H1921       H  0.95869346  0.10736705  0.03688169     0.15400
C1922       C  0.96667708  0.14019855  0.99429285    -0.23600
H1923       H  0.58916051  0.10234778  0.04929548     0.05600
H1924       H  0.56414112  0.08890492  0.07438335     0.08800
H1925       H  0.58068048  0.13039824  0.07459704     0.08800
H1926       H  0.97997040  0.13233220  0.97721591     0.08800
H1927       H  0.95694862  0.16520346  0.99166904     0.08800
H1928       H  0.94511876  0.12356688  0.99700005     0.05600
C1929       C  0.53253212  0.32918799  0.93984445    -0.20200
C1930       C  0.53985003  0.31826684  0.91577833    -0.06800
C1931       C  0.54250557  0.28405097  0.91096047     0.14100
C1932       C  0.53634969  0.26183805  0.92987014    -0.20300
C1933       C  0.53096993  0.27238337  0.95425939    -0.06800
C1934       C  0.52795324  0.30674499  0.95922971     0.14100
C1935       C  0.02004901  0.32031539  0.98459424    -0.23600
H1936       H  0.03004956  0.35541018  0.94340882     0.15400
H1937       H  0.53733380  0.23567215  0.92575786     0.15400
C1938       C  0.55429036  0.27057825  0.88642160    -0.23600
H1939       H  0.02368434  0.34741171  0.98551937     0.05600
H1940       H  0.03615050  0.30908406  0.99870168     0.08800
H1941       H  0.99362678  0.31571608  0.98927475     0.08800
H1942       H  0.57801439  0.28265524  0.88123326     0.08800
H1943       H  0.53554384  0.27468722  0.87196063     0.08800
H1944       H  0.55896349  0.24360757  0.88708046     0.05600
C1945       C  0.65322953  0.24954728  0.54114283    -0.20200
C1946       C  0.66167512  0.24032165  0.56521058    -0.06800
C1947       C  0.69255737  0.22394085  0.56908011     0.14100
C1948       C  0.71355247  0.21730062  0.54888194    -0.20300
C1949       C  0.70599282  0.22870081  0.52538982    -0.06800
C1950       C  0.67519158  0.24422595  0.52126347     0.14100
C1951       C  0.66559354  0.25511888  0.49587571    -0.23600
H1952       H  0.62950537  0.26143481  0.53791789     0.15400
H1953       H  0.73715745  0.20496108  0.55167869     0.15400
C1954       C  0.70526825  0.21558813  0.59438017    -0.23600
H1955       H  0.64055971  0.26678077  0.49578847     0.05600
H1956       H  0.66530390  0.23347993  0.48319889     0.08800
H1957       H  0.68377991  0.27326837  0.48890328     0.08800
H1958       H  0.69239396  0.19382076  0.60186752     0.08800
H1959       H  0.70226058  0.23703658  0.60706967     0.08800
H1960       H  0.73206458  0.20890929  0.59384962     0.05600
C1961       C  0.60336857  0.47721351  0.52191144    -0.20200
C1962       C  0.56951797  0.48231731  0.52738783    -0.06800
C1963       C  0.55907479  0.48303393  0.55223299     0.14100
C1964       C  0.58131760  0.47379370  0.57049515    -0.20300
C1965       C  0.61506500  0.46695306  0.56528476    -0.06800
C1966       C  0.62653689  0.47072387  0.54064624     0.14100
C1967       C  0.66272866  0.46919026  0.53339876    -0.23600
H1968       H  0.61163551  0.47754630  0.50286487     0.15400
H1969       H  0.57169484  0.47152658  0.58908760     0.15400
C1970       C  0.52444118  0.49308198  0.56015360    -0.23600
H1971       H  0.67057846  0.98909446  0.52089632     0.05600
H1972       H  0.66746490  0.44695176  0.52178951     0.08800
H1973       H  0.68065664  0.96775275  0.54819683     0.08800
H1974       H  0.51220670  0.47239469  0.56981755     0.08800
H1975       H  0.50874086  0.50076832  0.54453596     0.08800
H1976       H  0.52594353  0.51436492  0.57310396     0.05600
C1977       C  0.63630889  0.19459783  0.68471807    -0.20200
C1978       C  0.62110526  0.16373428  0.68239255    -0.06800
C1979       C  0.60139992  0.15680810  0.66151117     0.14100
C1980       C  0.59764818  0.18090708  0.64335593    -0.20300
C1981       C  0.61257738  0.21191233  0.64580310    -0.06800
C1982       C  0.63218432  0.21883873  0.66671322     0.14100
C1983       C  0.64958714  0.25143572  0.66970479    -0.23600
H1984       H  0.65106127  0.19991180  0.70088439     0.15400
H1985       H  0.58345805  0.17541064  0.62694752     0.15400
C1986       C  0.58527818  0.12365271  0.65788478    -0.23600
H1987       H  0.66449639  0.25243589  0.68681484     0.05600
H1988       H  0.63098751  0.27169723  0.67067001     0.08800
H1989       H  0.66664522  0.25546773  0.65384603     0.08800
H1990       H  0.56658207  0.11936371  0.67262214     0.08800
H1991       H  0.60448782  0.10392851  0.65830353     0.08800
H1992       H  0.57230073  0.12192062  0.63994757     0.05600
C1993       C  0.60087885  0.01081042  0.67923836    -0.20200
C1994       C  0.62817916  0.01895540  0.69402311    -0.06800
C1995       C  0.65803698  0.00026924  0.69097902     0.14100
C1996       C  0.66145099  0.97852136  0.67086764    -0.20300
C1997       C  0.63510967  0.47262866  0.65540471    -0.06800
C1998       C  0.60349498  0.48646856  0.66140287     0.14100
C1999       C  0.57212061  0.47662257  0.64827792    -0.23600
H2000       H  0.57729568  0.02330668  0.68224623     0.15400
H2001       H  0.68542261  0.96705764  0.66734360     0.15400
C2002       C  0.68672472  0.00276552  0.70866913    -0.23600
H2003       H  0.55332058  0.46847397  0.66199036     0.05600
H2004       H  0.57609928  0.45574473  0.63524077     0.08800
H2005       H  0.56197378  0.49800316  0.63816018     0.08800
H2006       H  0.67752653  0.99979737  0.72785693     0.08800
H2007       H  0.69960871  0.02669373  0.70670763     0.08800
H2008       H  0.70562390  0.98319057  0.70513342     0.05600
C2009       C  0.62875015  0.26012952  0.93834631    -0.20200
C2010       C  0.63263355  0.23731925  0.91880880    -0.06800
C2011       C  0.61816678  0.20563752  0.92152460     0.14100
C2012       C  0.59454494  0.20062147  0.94025952    -0.20300
C2013       C  0.58771657  0.22511086  0.95802728    -0.06800
C2014       C  0.60800639  0.25345326  0.95859359     0.14100
C2015       C  0.60861843  0.27608381  0.98071651    -0.23600
H2016       H  0.64098515  0.28380143  0.93757080     0.15400
H2017       H  0.58083424  0.17768970  0.94060943     0.15400
C2018       C  0.62760914  0.17632038  0.90564400    -0.23600
H2019       H  0.62703399  0.29616115  0.97842838     0.05600
H2020       H  0.61554146  0.26178159  0.99722431     0.08800
H2021       H  0.58417079  0.28759364  0.98397041     0.08800
H2022       H  0.64917556  0.18129202  0.89341977     0.08800
H2023       H  0.60601206  0.16852893  0.89442021     0.08800
H2024       H  0.63501942  0.15555222  0.91759586     0.05600
C2025       C  0.60761372  0.19385971  0.80143603    -0.20200
C2026       C  0.63539447  0.18038284  0.78898336    -0.06800
C2027       C  0.66736623  0.19370116  0.79439585     0.14100
C2028       C  0.67064621  0.21711680  0.81338671    -0.20300
C2029       C  0.64320241  0.22896476  0.82690495    -0.06800
C2030       C  0.61103481  0.21853422  0.81971647     0.14100
C2031       C  0.57982234  0.23369614  0.83029064    -0.23600
H2032       H  0.58293760  0.18514333  0.79694777     0.15400
H2033       H  0.69535584  0.22505944  0.81851926     0.15400
C2034       C  0.69877219  0.18354131  0.78078224    -0.23600
H2035       H  0.56372296  0.24222798  0.81510036     0.05600
H2036       H  0.58523932  0.25552531  0.84190237     0.08800
H2037       H  0.56606735  0.21519291  0.84125992     0.08800
H2038       H  0.69564849  0.18727660  0.76070779     0.08800
H2039       H  0.70493683  0.15743402  0.78463158     0.08800
H2040       H  0.72056893  0.19838331  0.78654061     0.05600
C2041       C  0.63828712  0.00747834  0.79874788    -0.20200
C2042       C  0.62541563  0.03950942  0.80086449    -0.06800
C2043       C  0.60830665  0.04930826  0.82265024     0.14100
C2044       C  0.60408529  0.02658629  0.84170574    -0.20300
C2045       C  0.61560114  0.49436574  0.83984267    -0.06800
C2046       C  0.63335108  0.48480453  0.81832054     0.14100
C2047       C  0.64766232  0.45057108  0.81541646    -0.23600
H2048       H  0.65116500  0.00006406  0.78195451     0.15400
H2049       H  0.59145906  0.03399731  0.85859926     0.15400
C2050       C  0.59517302  0.08393778  0.82609239    -0.23600
H2051       H  0.66134568  0.44744535  0.79769196     0.05600
H2052       H  0.62736143  0.43214164  0.81585674     0.08800
H2053       H  0.66525287  0.44558839  0.83059445     0.08800
H2054       H  0.57552254  0.08908559  0.81243699     0.08800
H2055       H  0.61574396  0.10184032  0.82378203     0.08800
H2056       H  0.58411319  0.08779581  0.84471450     0.05600
C2057       C  0.78184671  0.42290917  0.93163813    -0.20200
C2058       C  0.76781632  0.41690170  0.95473406    -0.06800
C2059       C  0.75333643  0.38591679  0.95912494     0.14100
C2060       C  0.75098159  0.36273095  0.93962300    -0.20300
C2061       C  0.76188688  0.37004538  0.91548280    -0.06800
C2062       C  0.77766389  0.40112276  0.91168418     0.14100
C2063       C  0.78773435  0.41380521  0.88666502    -0.23600
H2064       H  0.79418339  0.44627601  0.92874665     0.15400
H2065       H  0.73995813  0.33895163  0.94324189     0.15400
C2066       C  0.74043503  0.37732916  0.98430114    -0.23600
H2067       H  0.79065848  0.44099954  0.88690796     0.05600
H2068       H  0.76845405  0.40803952  0.87281941     0.08800
H2069       H  0.81235628  0.40384961  0.88104266     0.08800
H2070       H  0.72035441  0.39464583  0.98985933     0.08800
H2071       H  0.76091718  0.37893982  0.99783119     0.08800
H2072       H  0.73023204  0.35195583  0.98474654     0.05600
C2073       C  0.80443392  0.05131781  0.01577284    -0.20200
C2074       C  0.77316525  0.03608870  0.01464263    -0.06800
C2075       C  0.74764251  0.04757472  0.03064800     0.14100
C2076       C  0.75480116  0.07218131  0.04821740    -0.20300
C2077       C  0.78748536  0.08357250  0.05201986    -0.06800
C2078       C  0.81267974  0.07305432  0.03510160     0.14100
C2079       C  0.84897846  0.08117381  0.03845388    -0.23600
H2080       H  0.82371059  0.04316888  0.00303186     0.15400
H2081       H  0.73494798  0.08093406  0.06022662     0.15400
C2082       C  0.71348890  0.03240762  0.03069470    -0.23600
H2083       H  0.86522208  0.06573111  0.02632038     0.05600
H2084       H  0.85653602  0.07639258  0.05770392     0.08800
H2085       H  0.85389307  0.10709516  0.03350798     0.08800
H2086       H  0.71545184  0.00538458  0.03336813     0.08800
H2087       H  0.70080709  0.03753530  0.01311041     0.08800
H2088       H  0.69754924  0.04263346  0.04575290     0.05600
C2089       C  0.72284191  0.47011484  0.92583977    -0.20200
C2090       C  0.71538087  0.46760433  0.95094732    -0.06800
C2091       C  0.68271281  0.45959775  0.95845184     0.14100
C2092       C  0.65857589  0.45300846  0.94051535    -0.20300
C2093       C  0.66649525  0.45423233  0.91532781    -0.06800
C2094       C  0.69940112  0.46200284  0.90791274     0.14100
C2095       C  0.71066434  0.45996177  0.88130529    -0.23600
H2096       H  0.74751122  0.47761644  0.92020648     0.15400
H2097       H  0.63327001  0.44760609  0.94612841     0.15400
C2098       C  0.67308868  0.45893845  0.98530194    -0.23600
H2099       H  0.73772813  0.46437864  0.87939357     0.05600
H2100       H  0.69841005  0.47877682  0.86991132     0.08800
H2101       H  0.70533382  0.43503987  0.87372292     0.08800
H2102       H  0.67639279  0.48380011  0.99358027     0.08800
H2103       H  0.68887820  0.44118270  0.99526354     0.08800
H2104       H  0.64670749  0.45170018  0.98794779     0.05600
C2105       C  0.87447833  0.49051436  0.03820139    -0.20200
C2106       C  0.86310851  0.49748744  0.06220184    -0.06800
C2107       C  0.82854585  0.49691842  0.06730929     0.14100
C2108       C  0.80652104  0.48731380  0.04874771    -0.20300
C2109       C  0.81772167  0.48074428  0.02463839    -0.06800
C2110       C  0.85215324  0.48267436  0.01923636     0.14100
C2111       C  0.86527500  0.47795426  0.99336582    -0.23600
H2112       H  0.90094508  0.49116911  0.03431814     0.15400
H2113       H  0.78004266  0.48687060  0.05264301     0.15400
C2114       C  0.81451877  0.50855406  0.09176587    -0.23600
H2115       H  0.89254472  0.48198092  0.99228536     0.05600
H2116       H  0.85317160  0.99540214  0.98085618     0.08800
H2117       H  0.86032475  0.45249697  0.98682354     0.08800
H2118       H  0.82368997  0.03299322  0.09597444     0.08800
H2119       H  0.82175856  0.49176891  0.10675298     0.08800
H2120       H  0.78691660  0.50964886  0.09157851     0.05600
C2121       C  0.98424471  0.20649080  0.04820987    -0.20200
C2122       C  0.97418407  0.21427065  0.02422444    -0.06800
C2123       C  0.93965470  0.21791521  0.01948586     0.14100
C2124       C  0.91652640  0.21121650  0.03836385    -0.20300
C2125       C  0.92687428  0.20189192  0.06188496    -0.06800
C2126       C  0.96120841  0.19933313  0.06682922     0.14100
C2127       C  0.97378058  0.18752758  0.09133301    -0.23600
H2128       H  0.01055804  0.20472415  0.05214759     0.15400
H2129       H  0.89014882  0.21402469  0.03495772     0.15400
C2130       C  0.92658335  0.22871592  0.99485786    -0.23600
H2131       H  0.00122776  0.18434115  0.09117528     0.05600
H2132       H  0.96249615  0.16333191  0.09566182     0.08800
H2133       H  0.96753699  0.20545450  0.10619821     0.08800
H2134       H  0.93826704  0.21455285  0.97950043     0.08800
H2135       H  0.93133740  0.25533572  0.99233274     0.08800
H2136       H  0.89926095  0.22526029  0.99363737     0.05600
C2137       C  0.82641252  0.21352423  0.40836586    -0.20200
C2138       C  0.85930620  0.20727396  0.41574558    -0.06800
C2139       C  0.86748136  0.21140226  0.44089881     0.14100
C2140       C  0.84219702  0.21950392  0.45804983    -0.20300
C2141       C  0.80915161  0.22414288  0.45059529    -0.06800
C2142       C  0.80166676  0.22307411  0.42530150     0.14100
C2143       C  0.76794275  0.23313806  0.41607130    -0.23600
H2144       H  0.82019699  0.21167158  0.38901849     0.15400
H2145       H  0.84792217  0.22092640  0.47749648     0.15400
C2146       C  0.90273549  0.20813944  0.44972501    -0.23600
H2147       H  0.76677547  0.23216213  0.39565411     0.05600
H2148       H  0.76238322  0.25878795  0.42216942     0.08800
H2149       H  0.74850242  0.21669892  0.42329725     0.08800
H2150       H  0.91910838  0.22515215  0.43936615     0.08800
H2151       H  0.91167023  0.18246433  0.44715909     0.08800
H2152       H  0.90478090  0.21434958  0.46961808     0.05600
C2153       C  0.92752151  0.41674351  0.16705934    -0.20200
C2154       C  0.89908067  0.41859205  0.18234677    -0.06800
C2155       C  0.87393238  0.44191540  0.17704207     0.14100
C2156       C  0.87832733  0.46300314  0.15694194    -0.20300
C2157       C  0.90701350  0.46122552  0.14206658    -0.06800
C2158       C  0.93167753  0.43753907  0.14692865     0.14100
C2159       C  0.96179462  0.43329149  0.13043649    -0.23600
H2160       H  0.94658706  0.39849948  0.17063962     0.15400
H2161       H  0.85931847  0.48108759  0.15276866     0.15400
C2162       C  0.84288019  0.44532851  0.19258879    -0.23600
H2163       H  0.97774863  0.41245572  0.13632692     0.05600
H2164       H  0.97718289  0.45588008  0.13084190     0.08800
H2165       H  0.95378011  0.42821706  0.11125901     0.08800
H2166       H  0.84962658  0.45046815  0.21203001     0.08800
H2167       H  0.82809872  0.42234843  0.19144124     0.08800
H2168       H  0.82678437  0.46583118  0.18627072     0.05600
C2169       C  0.91130801  0.23617202  0.15715912    -0.20200
C2170       C  0.88271047  0.23896101  0.14263242    -0.06800
C2171       C  0.85914537  0.26379945  0.14804155     0.14100
C2172       C  0.86436281  0.28484546  0.16821537    -0.20300
C2173       C  0.89286676  0.28216787  0.18297425    -0.06800
C2174       C  0.91680247  0.25753750  0.17724716     0.14100
C2175       C  0.94771418  0.25311269  0.19235597    -0.23600
H2176       H  0.92950763  0.21722275  0.15261378     0.15400
H2177       H  0.84620980  0.30403635  0.17218918     0.15400
C2178       C  0.82917273  0.26902153  0.13202849    -0.23600
H2179       H  0.96271651  0.23161618  0.18587814     0.05600
H2180       H  0.94079396  0.24900391  0.21191413     0.08800
H2181       H  0.96363396  0.27528298  0.19092737     0.08800
H2182       H  0.81290407  0.24705152  0.13250600     0.08800
H2183       H  0.83731077  0.27347498  0.11276580     0.08800
H2184       H  0.81411285  0.29056984  0.13831046     0.05600
C2185       C  0.93043384  0.26562886  0.33228629    -0.20200
C2186       C  0.90534984  0.24241856  0.33579272    -0.06800
C2187       C  0.87871633  0.24050881  0.31905097     0.14100
C2188       C  0.87775665  0.26218375  0.29910910    -0.20300
C2189       C  0.90297517  0.28545181  0.29539622    -0.06800
C2190       C  0.92963384  0.28731489  0.31239336     0.14100
C2191       C  0.95682791  0.31268839  0.31038738    -0.23600
H2192       H  0.95062031  0.26690527  0.34536751     0.15400
H2193       H  0.85741766  0.26067428  0.28618494     0.15400
C2194       C  0.85173653  0.21511764  0.32188614    -0.23600
H2195       H  0.97391097  0.31190990  0.32633755     0.05600
H2196       H  0.94577510  0.33779296  0.30982075     0.08800
H2197       H  0.97209896  0.30799295  0.29359906     0.08800
H2198       H  0.83799957  0.21927008  0.33945060     0.08800
H2199       H  0.86291575  0.19005064  0.32181075     0.08800
H2200       H  0.83349108  0.21627073  0.30667857     0.05600
C2201       C  0.94330021  0.01297911  0.45704205    -0.20200
C2202       C  0.96206322  0.48540839  0.45694142    -0.06800
C2203       C  0.95614012  0.46125913  0.43856726     0.14100
C2204       C  0.93247410  0.46755585  0.42035747    -0.20300
C2205       C  0.91717246  0.49872843  0.41796772    -0.06800
C2206       C  0.92271841  0.02140802  0.43727499     0.14100
C2207       C  0.91206847  0.05698987  0.43577474    -0.23600
H2208       H  0.94814315  0.03129898  0.47121986     0.15400
H2209       H  0.92693267  0.44806867  0.40728738     0.15400
C2210       C  0.97613613  0.42976165  0.43678731    -0.23600
H2211       H  0.93224175  0.07337768  0.44234252     0.05600
H2212       H  0.88995890  0.06116311  0.44775866     0.08800
H2213       H  0.90707628  0.06467316  0.41664211     0.08800
H2214       H  0.97018360  0.41349323  0.45243451     0.08800
H2215       H  0.00312649  0.43542018  0.43654915     0.08800
H2216       H  0.97059066  0.41568322  0.41967218     0.05600
C2217       C  0.90803161  0.47360348  0.31416675    -0.20200
C2218       C  0.88599449  0.46572025  0.33338090    -0.06800
C2219       C  0.86965710  0.43506365  0.33322281     0.14100
C2220       C  0.87504279  0.41323713  0.31351058    -0.20300
C2221       C  0.89656306  0.42114062  0.29400384    -0.06800
C2222       C  0.91345231  0.45158037  0.29431353     0.14100
C2223       C  0.93598764  0.46135902  0.27338878    -0.23600
H2224       H  0.92066913  0.49712799  0.31460883     0.15400
H2225       H  0.86223371  0.38977702  0.31325473     0.15400
C2226       C  0.84669922  0.42525626  0.35396180    -0.23600
H2227       H  0.94626607  0.48645653  0.27623056     0.05600
H2228       H  0.92189925  0.46118908  0.25588703     0.08800
H2229       H  0.95716781  0.44382615  0.27182748     0.08800
H2230       H  0.82550808  0.44280354  0.35535447     0.08800
H2231       H  0.86046572  0.42541568  0.37159784     0.08800
H2232       H  0.83642854  0.40016343  0.35106800     0.05600
C2233       C  0.88123833  0.98945203  0.35427514     0.03200
C2234       C  0.85198217  0.50812861  0.35574769    -0.12900
C2235       C  0.84464767  0.52734275  0.37697825     0.00700
C2236       C  0.86547210  0.52292033  0.39770023    -0.11500
C2237       C  0.89522610  0.50431084  0.39609113     0.03200
C2238       C  0.90299686  0.98863762  0.37402006    -0.10900
H2239       H  0.83526379  0.50692154  0.34035989     0.08800
H2240       H  0.85904525  0.53376738  0.41522272     0.06300
H2241       H  0.92566290  0.97431075  0.37203140     0.06200
O2242       O  0.86936314  0.81672040  0.21415267    -0.72800
O2243       O  0.87134359  0.88667188  0.26526896    -0.73800
O2244       O  0.87035843  0.88591017  0.21281812    -0.62400
O2245       O  0.87255971  0.81758627  0.26660514    -0.70900
O2246       O  0.92757400  0.81807886  0.26431523    -0.70400
O2247       O  0.92540545  0.88509450  0.21217997    -0.61700
O2248       O  0.92652085  0.88756792  0.26448318    -0.74200
O2249       O  0.92437202  0.81580582  0.21181623    -0.73000
Cu2250     Cu  0.86899727  0.85171256  0.23976029     1.04600
Cu2251     Cu  0.92789229  0.85159443  0.23814386     1.04300
C2252       C  0.89606190  0.80563595  0.20429763     0.93300
C2253       C  0.89872513  0.89782076  0.27341635     0.92500
C2254       C  0.89800407  0.89576055  0.20370394     0.84600
C2255       C  0.90091554  0.80796376  0.27443731     0.90900
C2256       C  0.90799314  0.72028443  0.35728148     0.03200
C2257       C  0.88568354  0.72390470  0.37673298    -0.12900
C2258       C  0.88560465  0.70170778  0.39626498     0.00700
C2259       C  0.90845799  0.67499798  0.39586436    -0.11500
C2260       C  0.93276371  0.67188168  0.37680080     0.03200
C2261       C  0.93237790  0.69579341  0.35798758    -0.10900
H2262       H  0.86807871  0.74421530  0.37652153     0.08800
H2263       H  0.90669834  0.65670754  0.41007543     0.06300
H2264       H  0.95085840  0.69611095  0.34350283     0.06200
C2265       C  0.87923643  0.71741725  0.12103151     0.03200
C2266       C  0.85413580  0.69360730  0.11969002    -0.12900
C2267       C  0.85225827  0.67136774  0.09946938     0.00700
C2268       C  0.87662320  0.67417052  0.08054917    -0.11500
C2269       C  0.90128948  0.69866107  0.08168722     0.03200
C2270       C  0.90198355  0.72035195  0.10176098    -0.10900
H2271       H  0.83632326  0.69300019  0.13462809     0.08800
H2272       H  0.87726811  0.65707497  0.06514756     0.06300
H2273       H  0.92049009  0.73968611  0.10247031     0.06200
C2274       C  0.90994488  0.98316178  0.12085965     0.03200
C2275       C  0.88763058  0.97972269  0.10160096    -0.12900
C2276       C  0.88771123  0.50223888  0.08211686     0.00700
C2277       C  0.91182933  0.52736553  0.08149951    -0.11500
C2278       C  0.93570274  0.53048048  0.10050707     0.03200
C2279       C  0.93405351  0.50800720  0.12014910    -0.10900
H2280       H  0.87001119  0.95957756  0.10184054     0.08800
H2281       H  0.91134509  0.54453451  0.06642227     0.06300
H2282       H  0.95166413  0.50889061  0.13501461     0.06200
C2283       C  0.79239821  0.97762099  0.00484763     0.02400
C2284       C  0.77026747  0.50469135  0.00030184     0.02300
C2285       C  0.74563510  0.50075037  0.98235812    -0.18200
C2286       C  0.74270951  0.97094396  0.96892043     0.02400
C2287       C  0.76587833  0.94501411  0.97241518     0.02300
C2288       C  0.79003448  0.94840516  0.99074702    -0.18200
H2289       H  0.80735039  0.92837880  0.99380408     0.04400
H2290       H  0.72893034  0.52096006  0.97841013     0.04400
C2291       C  0.61330291  0.97182761  0.86037702     0.03200
C2292       C  0.59226029  0.94452634  0.85975467    -0.12900
C2293       C  0.59485673  0.91911639  0.87739220     0.00700
C2294       C  0.61968030  0.92242001  0.89563862    -0.11500
C2295       C  0.63979850  0.95075689  0.89675376     0.03200
C2296       C  0.63496046  0.97597647  0.87987420    -0.10900
H2297       H  0.57417824  0.94385614  0.84522701     0.08800
H2298       H  0.62420525  0.90302921  0.90868164     0.06300
H2299       H  0.64946428  0.99836013  0.88110025     0.06200
C2300       C  0.64955440  0.74849542  0.85018862     0.03200
C2301       C  0.63554121  0.73826117  0.87250987    -0.12900
C2302       C  0.64842470  0.74869062  0.89530536     0.00700
C2303       C  0.67544343  0.77078929  0.89540336    -0.11500
C2304       C  0.68877190  0.78329587  0.87329452     0.03200
C2305       C  0.67485293  0.77235218  0.85081895    -0.10900
H2306       H  0.61514149  0.72106018  0.87205136     0.08800
H2307       H  0.68668588  0.77750781  0.91275193     0.06300
H2308       H  0.68422878  0.78139852  0.83346435     0.06200
O2309       O  0.59846394  0.55977030  0.71975833    -0.72800
O2310       O  0.60175799  0.64160091  0.76532663    -0.73800
O2311       O  0.59715294  0.62970464  0.71334403    -0.62400
O2312       O  0.59939057  0.57211602  0.77160978    -0.70900
O2313       O  0.65445921  0.56881555  0.76984283    -0.70400
O2314       O  0.65226726  0.63098484  0.71165576    -0.61700
O2315       O  0.65641913  0.63777576  0.76330070    -0.74200
O2316       O  0.65331635  0.56155650  0.71808774    -0.73000
Cu2317     Cu  0.59718672  0.60081948  0.74253290     1.04600
Cu2318     Cu  0.65594341  0.59973937  0.74061224     1.04300
C2319       C  0.62630832  0.54774092  0.71196384     0.93300
C2320       C  0.63058104  0.65225038  0.77162655     0.92500
C2321       C  0.62388311  0.63993852  0.70341973     0.84600
C2322       C  0.62669770  0.56136221  0.78006337     0.90900
C2323       C  0.64314295  0.95675854  0.63013881     0.03200
C2324       C  0.66514795  0.92980486  0.62823847    -0.12900
C2325       C  0.67602892  0.91747375  0.60505319     0.00700
C2326       C  0.66000856  0.92930454  0.58376119    -0.11500
C2327       C  0.63712285  0.95582992  0.58534528     0.03200
C2328       C  0.63134404  0.97070948  0.60845434    -0.10900
H2329       H  0.67440107  0.91902261  0.64497269     0.08800
H2330       H  0.66566617  0.91833569  0.56601246     0.06300
H2331       H  0.61654089  0.99303065  0.60964555     0.06200
C2332       C  0.61288133  0.73402964  0.62506389     0.03200
C2333       C  0.59692633  0.76484107  0.62607768    -0.12900
C2334       C  0.60150661  0.78793491  0.60699543     0.00700
C2335       C  0.62431976  0.77976286  0.58787149    -0.11500
C2336       C  0.63937376  0.74833413  0.58638272     0.03200
C2337       C  0.63154286  0.72515012  0.60431086    -0.10900
H2338       H  0.58074473  0.77001122  0.64161782     0.08800
H2339       H  0.63061578  0.79783200  0.57410194     0.06300
H2340       H  0.64068721  0.70018057  0.60263500     0.06200
C2341       C  0.52368675  0.68905528  0.00196501     0.02400
C2342       C  0.00046255  0.71547209  0.00471209     0.02300
C2343       C  0.00425678  0.74349036  0.98998435    -0.18200
C2344       C  0.53144338  0.74680207  0.97379713     0.02400
C2345       C  0.55713861  0.72248893  0.97397631     0.02300
C2346       C  0.55229186  0.69355091  0.98742208    -0.18200
H2347       H  0.57091521  0.67418528  0.98641159     0.04400
H2348       H  0.98573560  0.76262126  0.99092276     0.04400
O2349       O  0.86340509  0.89161183  0.71152971    -0.72800
O2350       O  0.92962667  0.88460834  0.76501133    -0.73800
O2351       O  0.93404116  0.89563323  0.71341219    -0.62400
O2352       O  0.86024871  0.87829779  0.76350203    -0.70900
O2353       O  0.86599510  0.82472144  0.75614521    -0.70400
O2354       O  0.93703942  0.84161925  0.70679025    -0.61700
O2355       O  0.93534471  0.83082027  0.75841823    -0.74200
O2356       O  0.86668516  0.83791388  0.70428143    -0.73000
Cu2357     Cu  0.89660141  0.88943927  0.73852567     1.04600
Cu2358     Cu  0.90137524  0.83193574  0.73104969     1.04300
C2359       C  0.85469340  0.86633908  0.69911332     0.93300
C2360       C  0.94211424  0.85692009  0.77080993     0.92500
C2361       C  0.94689968  0.87069348  0.70217669     0.84600
C2362       C  0.85311728  0.84833979  0.76859853     0.90900
C2363       C  0.77029781  0.82376875  0.85402184     0.03200
C2364       C  0.77854091  0.84122913  0.87535747    -0.12900
C2365       C  0.75541002  0.84551121  0.89468623     0.00700
C2366       C  0.72553728  0.82701308  0.89365755    -0.11500
C2367       C  0.71885599  0.80535555  0.87358515     0.03200
C2368       C  0.74141262  0.80485239  0.85355872    -0.10900
H2369       H  0.80279057  0.85228900  0.87622860     0.08800
H2370       H  0.70720797  0.82997229  0.90821344     0.06300
H2371       H  0.73712110  0.78969356  0.83742646     0.06200
C2372       C  0.52936844  0.85859353  0.85418979     0.03200
C2373       C  0.55418590  0.88251927  0.85457772    -0.12900
C2374       C  0.57203470  0.88964255  0.87630168     0.00700
C2375       C  0.56671296  0.86887581  0.89683878    -0.11500
C2376       C  0.54347899  0.84294328  0.89571793     0.03200
C2377       C  0.52347561  0.83960372  0.87491452    -0.10900
H2378       H  0.55847961  0.89577847  0.83775628     0.08800
H2379       H  0.58021989  0.87250561  0.91374588     0.06300
H2380       H  0.50347944  0.82178674  0.87468510     0.06200
C2381       C  0.75952692  0.87734055  0.61982556     0.03200
C2382       C  0.73054335  0.89637996  0.62166429    -0.12900
C2383       C  0.70576458  0.89471185  0.60333662     0.00700
C2384       C  0.71065627  0.87217475  0.58343294    -0.11500
C2385       C  0.74035731  0.85340982  0.58126242     0.03200
C2386       C  0.76533099  0.85823045  0.59876719    -0.10900
H2387       H  0.72789627  0.91269224  0.63743689     0.08800
H2388       H  0.69137438  0.86873175  0.56988391     0.06300
H2389       H  0.78928926  0.84636218  0.59648604     0.06200
C2390       C  0.54918667  0.86266973  0.62773332     0.03200
C2391       C  0.54573968  0.87926387  0.60550659    -0.12900
C2392       C  0.55743561  0.86539652  0.58329885     0.00700
C2393       C  0.57525771  0.83545922  0.58405164    -0.11500
C2394       C  0.58263202  0.82011558  0.60669346     0.03200
C2395       C  0.56907632  0.83420730  0.62852084    -0.10900
H2396       H  0.53075723  0.90153796  0.60527967     0.08800
H2397       H  0.58157744  0.82311195  0.56695244     0.06300
H2398       H  0.57190103  0.82221148  0.64602621     0.06200
C2399       C  0.50322366  0.59099124  0.12140004     0.03200
C2400       C  0.97797524  0.56733981  0.12198482    -0.12900
C2401       C  0.96209258  0.55679159  0.10006896     0.00700
C2402       C  0.97289679  0.57056729  0.07757458    -0.11500
C2403       C  0.99712132  0.59560160  0.07700288     0.03200
C2404       C  0.51089627  0.60641371  0.09930413    -0.10900
H2405       H  0.97165307  0.55703560  0.13964265     0.08800
H2406       H  0.96317691  0.56132380  0.06037117     0.06300
H2407       H  0.52894177  0.62611530  0.09955469     0.06200
C2408       C  0.78399761  0.61099477  0.11924533     0.03200
C2409       C  0.80872909  0.63514456  0.12008280    -0.12900
C2410       C  0.82584538  0.64495246  0.09853775     0.00700
C2411       C  0.81689838  0.62961849  0.07602310    -0.11500
C2412       C  0.79472334  0.60273375  0.07528299     0.03200
C2413       C  0.77832717  0.59387947  0.09726024    -0.10900
H2414       H  0.81365222  0.64633833  0.13777349     0.08800
H2415       H  0.82633505  0.63921731  0.05895685     0.06300
H2416       H  0.76015810  0.57426850  0.09729493     0.06200
O2417       O  0.60776293  0.63125780  0.20959548    -0.72800
O2418       O  0.67894340  0.62981791  0.26251369    -0.73800
O2419       O  0.67831068  0.63075322  0.20979352    -0.62400
O2420       O  0.60856984  0.63166740  0.26207900    -0.70900
O2421       O  0.60733465  0.57727310  0.26211302    -0.70400
O2422       O  0.67853652  0.57626924  0.20834335    -0.61700
O2423       O  0.67777294  0.57535296  0.26117449    -0.74200
O2424       O  0.60800257  0.57657645  0.20941323    -0.73000
Cu2425     Cu  0.64345450  0.63273098  0.23601639     1.04600
Cu2426     Cu  0.64290916  0.57447172  0.23525820     1.12300
C2427       C  0.59733824  0.60377083  0.20088381     0.93300
C2428       C  0.68902485  0.60198766  0.27056528     0.92500
C2429       C  0.68892048  0.60391122  0.20013636     0.84600
C2430       C  0.59698259  0.60497468  0.27079882     0.90900
C2431       C  0.50613471  0.61921289  0.35410514     0.03200
C2432       C  0.51489280  0.60255260  0.37534665    -0.12900
C2433       C  0.99422004  0.60334389  0.39618024     0.00700
C2434       C  0.96726484  0.62590201  0.39712212    -0.11500
C2435       C  0.95903363  0.64492763  0.37619002     0.03200
C2436       C  0.97734607  0.63863929  0.35421445    -0.10900
H2437       H  0.53751745  0.58795029  0.37537473     0.08800
H2438       H  0.95302912  0.62815676  0.41401012     0.06300
H2439       H  0.96987250  0.64881798  0.33684726     0.06200
C2440       C  0.77643670  0.58650842  0.35452654     0.03200
C2441       C  0.80074042  0.56165068  0.35488745    -0.12900
C2442       C  0.81675099  0.55269356  0.37698596     0.00700
C2443       C  0.80698251  0.56983214  0.39872727    -0.11500
C2444       C  0.78600469  0.59769604  0.39802890     0.03200
C2445       C  0.77056505  0.60556499  0.37570226    -0.10900
H2446       H  0.80625385  0.54952352  0.33758780     0.08800
H2447       H  0.81503858  0.56164753  0.41642702     0.06300
H2448       H  0.75315133  0.62595529  0.37486478     0.06200
C2449       C  0.99175225  0.98162979  0.47309049     0.02400
C2450       C  0.51601511  0.50858887  0.47367370     0.02300
C2451       C  0.54218041  0.50718083  0.49063475    -0.18200
C2452       C  0.54575817  0.97957471  0.50587581     0.02400
C2453       C  0.52292981  0.95296766  0.50498063     0.02300
C2454       C  0.99585616  0.95476961  0.48890881    -0.18200
H2455       H  0.97780914  0.93520500  0.48869908     0.04400
H2456       H  0.56088196  0.52628824  0.49085495     0.04400
C2457       C  0.76204643  0.69655303  0.47376347     0.02400
C2458       C  0.78342275  0.72408843  0.47028520     0.02300
C2459       C  0.78043936  0.75189513  0.48585300    -0.18200
C2460       C  0.75584840  0.75344524  0.50432105     0.02400
C2461       C  0.73399498  0.72648041  0.50724911     0.02300
C2462       C  0.73781598  0.69817577  0.49249906    -0.18200
H2463       H  0.72220403  0.67710114  0.49609873     0.04400
H2464       H  0.79758433  0.77223074  0.48377213     0.04400
C2465       C  0.74671973  0.62964438  0.42517645    -0.20200
C2466       C  0.77941186  0.61850666  0.42052573    -0.06800
C2467       C  0.80513998  0.62982525  0.43620010     0.14100
C2468       C  0.79730441  0.65158302  0.45566492    -0.20300
C2469       C  0.76561765  0.66592158  0.45819567    -0.06800
C2470       C  0.73952353  0.65359351  0.44338690     0.14100
C2471       C  0.70430849  0.66634555  0.44574398    -0.23600
H2472       H  0.72672427  0.62044680  0.41379841     0.15400
H2473       H  0.81683838  0.65955768  0.46792239     0.15400
C2474       C  0.84136818  0.62194731  0.43148501    -0.23600
H2475       H  0.68817583  0.65627202  0.43099899     0.05600
H2476       H  0.70362933  0.69359458  0.44448657     0.08800
H2477       H  0.69331303  0.65872734  0.46354941     0.08800
H2478       H  0.84798223  0.62696037  0.41199785     0.08800
H2479       H  0.84674531  0.59600367  0.43593709     0.08800
H2480       H  0.85793401  0.63717818  0.44320768     0.05600
C2481       C  0.50419697  0.59069965  0.44069739    -0.20200
C2482       C  0.00109628  0.57953742  0.41623804    -0.06800
C2483       C  0.00505110  0.54540160  0.41099923     0.14100
C2484       C  0.01425300  0.52406953  0.42982218    -0.20300
C2485       C  0.51554009  0.53467753  0.45442854    -0.06800
C2486       C  0.51055882  0.56854762  0.45997195     0.14100
C2487       C  0.51028578  0.58115957  0.48614551    -0.23600
H2488       H  0.50086670  0.61670138  0.44479298     0.15400
H2489       H  0.01582247  0.99626238  0.42431082     0.15400
C2490       C  0.99656503  0.53047788  0.38622625    -0.23600
H2491       H  0.50417259  0.60785580  0.48717809     0.05600
H2492       H  0.53510496  0.57769715  0.49447302     0.08800
H2493       H  0.49135635  0.56774050  0.49709376     0.08800
H2494       H  0.01519176  0.53715760  0.37205573     0.08800
H2495       H  0.97146730  0.53887893  0.38057633     0.08800
H2496       H  0.99603750  0.50313132  0.38683745     0.05600
C2497       C  0.56578911  0.63877851  0.30176608    -0.20200
C2498       C  0.57215257  0.60729438  0.29144754    -0.06800
C2499       C  0.55536200  0.57978706  0.30157017     0.14100
C2500       C  0.53326460  0.58464894  0.32153398    -0.20300
C2501       C  0.52747800  0.61606652  0.33178303    -0.06800
C2502       C  0.54398762  0.64347931  0.32176642     0.14100
C2503       C  0.53995218  0.67759137  0.33275913    -0.23600
H2504       H  0.57846843  0.66010745  0.29449371     0.15400
H2505       H  0.52058700  0.56370183  0.32943749     0.15400
C2506       C  0.56040868  0.54523957  0.29177308    -0.23600
H2507       H  0.55639252  0.69572439  0.32358330     0.05600
H2508       H  0.54637365  0.67727871  0.35259678     0.08800
H2509       H  0.51400253  0.68634734  0.33064384     0.08800
H2510       H  0.58670462  0.53758398  0.29416149     0.08800
H2511       H  0.55368589  0.54405488  0.27200397     0.08800
H2512       H  0.54464756  0.52718429  0.30166840     0.05600
C2513       C  0.75664382  0.61944295  0.31866509    -0.20200
C2514       C  0.75499033  0.59053814  0.33259921    -0.06800
C2515       C  0.73165046  0.56608505  0.32622635     0.14100
C2516       C  0.71104058  0.57076500  0.30588671    -0.20300
C2517       C  0.71251064  0.59951974  0.29166600    -0.06800
C2518       C  0.73570921  0.62429916  0.29825734     0.14100
C2519       C  0.73909126  0.65553290  0.28374922    -0.23600
H2520       H  0.77440406  0.63826123  0.32381101     0.15400
H2521       H  0.69307338  0.55185994  0.30137436     0.15400
C2522       C  0.72751986  0.53541089  0.34139792    -0.23600
H2523       H  0.75951509  0.67127033  0.29080440     0.05600
H2524       H  0.71573418  0.67011688  0.28509781     0.08800
H2525       H  0.74467061  0.64945816  0.26416075     0.08800
H2526       H  0.72173256  0.54233520  0.36080576     0.08800
H2527       H  0.75065113  0.52044092  0.34070604     0.08800
H2528       H  0.70698543  0.51967907  0.33452828     0.05600
C2529       C  0.73629943  0.57975225  0.17548584    -0.20200
C2530       C  0.71293775  0.60534932  0.17909375    -0.06800
C2531       C  0.71275162  0.63197634  0.16229043     0.14100
C2532       C  0.73655610  0.63289987  0.14331283    -0.20300
C2533       C  0.76023730  0.60784177  0.14013254    -0.06800
C2534       C  0.75992813  0.58069781  0.15615001     0.14100
C2535       C  0.78474467  0.55309023  0.15300799    -0.23600
H2536       H  0.73637393  0.55915131  0.18801529     0.15400
H2537       H  0.73654729  0.65329873  0.13056939     0.15400
C2538       C  0.68689814  0.65905931  0.16342719    -0.23600
H2539       H  0.78158073  0.53403406  0.16735432     0.05600
H2540       H  0.81038358  0.56296629  0.15427976     0.08800
H2541       H  0.78148626  0.54107703  0.13476184     0.08800
H2542       H  0.69010347  0.67429732  0.18030460     0.08800
H2543       H  0.66158958  0.64820726  0.16313974     0.08800
H2544       H  0.68897594  0.67590500  0.14750633     0.05600
C2545       C  0.55800533  0.58120337  0.13987809    -0.20200
C2546       C  0.52626468  0.59527615  0.14236234    -0.06800
C2547       C  0.51833128  0.61395736  0.16369237     0.14100
C2548       C  0.54229387  0.61744876  0.18239070    -0.20300
C2549       C  0.57389475  0.60266452  0.18003550    -0.06800
C2550       C  0.58198734  0.58489038  0.15820252     0.14100
C2551       C  0.61596663  0.57023917  0.15313130    -0.23600
H2552       H  0.56429448  0.56745218  0.12322780     0.15400
H2553       H  0.53614453  0.63114849  0.19906199     0.15400
C2554       C  0.98486494  0.63035845  0.16650152    -0.23600
H2555       H  0.61397778  0.54303428  0.15143308     0.05600
H2556       H  0.63438856  0.57615844  0.16751014     0.08800
H2557       H  0.62590939  0.58007385  0.13555586     0.08800
H2558       H  0.96498384  0.61147819  0.16617984     0.08800
H2559       H  0.98097085  0.64776596  0.15113940     0.08800
H2560       H  0.98276240  0.64438720  0.18411805     0.05600
C2561       C  0.55949148  0.90844172  0.52098463    -0.20200
C2562       C  0.52789464  0.92351339  0.52104172    -0.06800
C2563       C  0.50430493  0.91388664  0.53902076     0.14100
C2564       C  0.51418304  0.89237778  0.55770900    -0.20300
C2565       C  0.54725594  0.88110546  0.55966628    -0.06800
C2566       C  0.56996429  0.88843395  0.54044655     0.14100
C2567       C  0.60590093  0.87779545  0.54111604    -0.23600
H2568       H  0.57711205  0.91473607  0.50660003     0.15400
H2569       H  0.99623430  0.88565328  0.57176085     0.15400
C2570       C  0.96929405  0.92740389  0.53970386    -0.23600
H2571       H  0.62095028  0.89000889  0.52662784     0.05600
H2572       H  0.60804195  0.85088752  0.53785051     0.08800
H2573       H  0.61678685  0.88436008  0.55918151     0.08800
H2574       H  0.95511773  0.91776486  0.52380466     0.08800
H2575       H  0.96945413  0.95471056  0.53936907     0.08800
H2576       H  0.95570379  0.91988187  0.55660670     0.05600
C2577       C  0.73846343  0.83623750  0.53665072    -0.20200
C2578       C  0.74562730  0.82820385  0.56121659    -0.06800
C2579       C  0.75809361  0.79612513  0.56619280     0.14100
C2580       C  0.76441031  0.77414584  0.54664922    -0.20300
C2581       C  0.75528740  0.78132303  0.52249900    -0.06800
C2582       C  0.74271067  0.81309026  0.51729141     0.14100
C2583       C  0.73325524  0.82330955  0.49171853    -0.23600
H2584       H  0.72915866  0.86064863  0.53252480     0.15400
H2585       H  0.77488170  0.75011547  0.55044808     0.15400
C2586       C  0.76207399  0.78326449  0.59200960    -0.23600
H2587       H  0.70659716  0.83052624  0.49153016     0.05600
H2588       H  0.73712680  0.80347317  0.47780931     0.08800
H2589       H  0.74848337  0.84478163  0.48616297     0.08800
H2590       H  0.73891228  0.78783374  0.60277767     0.08800
H2591       H  0.78359946  0.79442185  0.60137443     0.08800
H2592       H  0.76690761  0.75634825  0.59198336     0.05600
C2593       C  0.00528898  0.88251904  0.68896255    -0.20200
C2594       C  0.97239633  0.87442872  0.68274973    -0.06800
C2595       C  0.96508695  0.86468059  0.65839015     0.14100
C2596       C  0.99073553  0.86251497  0.64095998    -0.20300
C2597       C  0.02384265  0.86900727  0.64723024    -0.06800
C2598       C  0.53130205  0.87964661  0.67140542     0.14100
C2599       C  0.56642296  0.88770756  0.67861090    -0.23600
H2600       H  0.01083723  0.88954415  0.70778630     0.15400
H2601       H  0.98509422  0.85437571  0.62237926     0.15400
C2602       C  0.93023232  0.85582082  0.65076308    -0.23600
H2603       H  0.56776253  0.89647584  0.69801653     0.05600
H2604       H  0.57631537  0.90737160  0.66657839     0.08800
H2605       H  0.58242537  0.86548905  0.67664589     0.08800
H2606       H  0.91331801  0.87692379  0.65447634     0.08800
H2607       H  0.92139673  0.83408735  0.66111541     0.08800
H2608       H  0.92886256  0.84965222  0.63082595     0.05600
C2609       C  0.97576914  0.87079435  0.83493415    -0.20200
C2610       C  0.00708578  0.85592154  0.83289804    -0.06800
C2611       C  0.01664408  0.83980960  0.81079332     0.14100
C2612       C  0.99455752  0.83943351  0.79086852    -0.20300
C2613       C  0.96365710  0.85554281  0.79258077    -0.06800
C2614       C  0.95397536  0.87112598  0.81501753     0.14100
C2615       C  0.92060134  0.88788311  0.81831589    -0.23600
H2616       H  0.46869084  0.88288360  0.85210717     0.15400
H2617       H  0.00180136  0.82744128  0.77370842     0.15400
C2618       C  0.05001045  0.82309701  0.80835567    -0.23600
H2619       H  0.91658035  0.89664532  0.83756130     0.05600
H2620       H  0.90030197  0.87049477  0.81380398     0.08800
H2621       H  0.91894730  0.90971272  0.80627778     0.08800
H2622       H  0.05233984  0.80397130  0.82268880     0.08800
H2623       H  0.07013757  0.84144910  0.81075437     0.08800
H2624       H  0.05332831  0.81106347  0.79003175     0.05600
C2625       C  0.80139530  0.85795134  0.79325380    -0.20200
C2626       C  0.83126039  0.84049661  0.78985787    -0.06800
C2627       C  0.84048624  0.81638353  0.80735941     0.14100
C2628       C  0.82002027  0.81107462  0.82803178    -0.20300
C2629       C  0.79021890  0.82848972  0.83129608    -0.06800
C2630       C  0.78050136  0.85183417  0.81356414     0.14100
C2631       C  0.74819124  0.87054166  0.81623785    -0.23600
H2632       H  0.79427386  0.87622814  0.77985806     0.15400
H2633       H  0.82731027  0.79335129  0.84179122     0.15400
C2634       C  0.87233451  0.79677758  0.80485298    -0.23600
H2635       H  0.74448266  0.88801661  0.80089759     0.05600
H2636       H  0.74791423  0.88484403  0.83375503     0.08800
H2637       H  0.72706553  0.85302331  0.81625411     0.08800
H2638       H  0.89393714  0.81356423  0.80347238     0.08800
H2639       H  0.87142033  0.78073327  0.78821313     0.08800
H2640       H  0.87635582  0.78057498  0.82091864     0.05600
C2641       C  0.80786238  0.84447259  0.67427446    -0.20200
C2642       C  0.83033517  0.87013850  0.67880904    -0.06800
C2643       C  0.82863261  0.89891312  0.66411038     0.14100
C2644       C  0.80517360  0.90067924  0.64508183    -0.20300
C2645       C  0.78281060  0.87500271  0.64074281    -0.06800
C2646       C  0.78368219  0.84684384  0.65588925     0.14100
C2647       C  0.75890333  0.81921237  0.65366148    -0.23600
H2648       H  0.80847355  0.82270329  0.68566742     0.15400
H2649       H  0.80424709  0.92221122  0.63346174     0.15400
C2650       C  0.85161310  0.92776164  0.66793044    -0.23600
H2651       H  0.74576899  0.81613834  0.67155153     0.05600
H2652       H  0.77210331  0.79589958  0.64890082     0.08800
H2653       H  0.73970944  0.82375029  0.63958106     0.08800
H2654       H  0.87789834  0.91951391  0.66693633     0.08800
H2655       H  0.84654860  0.93954625  0.68610502     0.08800
H2656       H  0.84808494  0.94692360  0.65372638     0.05600
C2657       C  0.54537265  0.64823681  0.03190342    -0.20200
C2658       C  0.51992037  0.65778956  0.01598627    -0.06800
C2659       C  0.99016653  0.63933473  0.01583097     0.14100
C2660       C  0.98326276  0.61828137  0.03554315    -0.20300
C2661       C  0.00735239  0.61176937  0.05349745    -0.06800
C2662       C  0.54008629  0.62379763  0.04951868     0.14100
C2663       C  0.57007900  0.61092638  0.06290754    -0.23600
H2664       H  0.56933568  0.66031442  0.03097302     0.15400
H2665       H  0.95867688  0.60770776  0.03710265     0.15400
C2666       C  0.96648216  0.64067100  0.99455644    -0.23600
H2667       H  0.58921003  0.60280900  0.04925126     0.05600
H2668       H  0.56429334  0.58918869  0.07433451     0.08800
H2669       H  0.58075742  0.63071211  0.07464854     0.08800
H2670       H  0.97973160  0.63287089  0.97744469     0.08800
H2671       H  0.95669867  0.66566557  0.99198683     0.08800
H2672       H  0.94495931  0.62399770  0.99727538     0.05600
C2673       C  0.53258574  0.82967791  0.93998873    -0.20200
C2674       C  0.53980206  0.81873510  0.91591005    -0.06800
C2675       C  0.54237100  0.78450566  0.91110618     0.14100
C2676       C  0.53625657  0.76231278  0.93003728    -0.20300
C2677       C  0.53096049  0.77287362  0.95442996    -0.06800
C2678       C  0.52801973  0.80724560  0.95939080     0.14100
C2679       C  0.02019142  0.82083335  0.98476258    -0.23600
H2680       H  0.03016189  0.85590535  0.94355011     0.15400
H2681       H  0.53717660  0.73614343  0.92593073     0.15400
C2682       C  0.55400424  0.77098356  0.88654612    -0.23600
H2683       H  0.02382381  0.84793081  0.98566958     0.05600
H2684       H  0.03633670  0.80961368  0.99884716     0.08800
H2685       H  0.99378544  0.81623152  0.98949130     0.08800
H2686       H  0.57769378  0.78305243  0.88126169     0.08800
H2687       H  0.53516257  0.77505212  0.87214637     0.08800
H2688       H  0.55868247  0.74401528  0.88722269     0.05600
C2689       C  0.65458266  0.74831624  0.54181555    -0.20200
C2690       C  0.66298777  0.73957829  0.56598636    -0.06800
C2691       C  0.69392724  0.72340922  0.57008806     0.14100
C2692       C  0.71506345  0.71655551  0.54999983    -0.20300
C2693       C  0.70751321  0.72747325  0.52637067    -0.06800
C2694       C  0.67662284  0.74270815  0.52202921     0.14100
C2695       C  0.66701142  0.75299166  0.49649931    -0.23600
H2696       H  0.63080487  0.76001071  0.53842922     0.15400
H2697       H  0.73873028  0.70441402  0.55296967     0.15400
C2698       C  0.70649943  0.71547969  0.59550686    -0.23600
H2699       H  0.64190187  0.76447781  0.49624344     0.05600
H2700       H  0.66689042  0.73108334  0.48408086     0.08800
H2701       H  0.68509154  0.77110840  0.48932888     0.08800
H2702       H  0.69357817  0.69385012  0.60316921     0.08800
H2703       H  0.70340473  0.73713214  0.60798833     0.08800
H2704       H  0.73329752  0.70879717  0.59511875     0.05600
C2705       C  0.60461284  0.97566364  0.52050816    -0.20200
C2706       C  0.57081596  0.98128554  0.52588380    -0.06800
C2707       C  0.56038260  0.98293572  0.55071167     0.14100
C2708       C  0.58251971  0.97408790  0.56915161    -0.20300
C2709       C  0.61618972  0.96668445  0.56408615    -0.06800
C2710       C  0.62770767  0.96954058  0.53937166     0.14100
C2711       C  0.66388054  0.96738136  0.53214871    -0.23600
H2712       H  0.61288017  0.97527043  0.50145565     0.15400
H2713       H  0.57282211  0.97249133  0.58776497     0.15400
C2714       C  0.52581908  0.99349082  0.55843384    -0.23600
H2715       H  0.66920757  0.49140741  0.52263453     0.05600
H2716       H  0.66839445  0.94466142  0.52102684     0.08800
H2717       H  0.67950765  0.46906778  0.54944323     0.08800
H2718       H  0.51342368  0.97320908  0.56846095     0.08800
H2719       H  0.51017902  0.00077828  0.54267502     0.08800
H2720       H  0.52747498  0.01516779  0.57100018     0.05600
C2721       C  0.63681976  0.69399830  0.68513046    -0.20200
C2722       C  0.62128161  0.66329272  0.68287789    -0.06800
C2723       C  0.60139028  0.65652146  0.66206608     0.14100
C2724       C  0.59778768  0.68062579  0.64390405    -0.20300
C2725       C  0.61305854  0.71146799  0.64628509    -0.06800
C2726       C  0.63285397  0.71823622  0.66711632     0.14100
C2727       C  0.65060601  0.75066118  0.67000622    -0.23600
H2728       H  0.65171737  0.69919271  0.70124422     0.15400
H2729       H  0.58347041  0.67525058  0.62753540     0.15400
C2730       C  0.58493099  0.62351790  0.65850516    -0.23600
H2731       H  0.66556777  0.75157907  0.68709322     0.05600
H2732       H  0.63221388  0.77111119  0.67093910     0.08800
H2733       H  0.66766623  0.75445194  0.65411280     0.08800
H2734       H  0.56623300  0.61943572  0.67327590     0.08800
H2735       H  0.60394854  0.60361074  0.65890824     0.08800
H2736       H  0.57187977  0.62188012  0.64059340     0.05600
C2737       C  0.60076971  0.51006026  0.68052563    -0.20200
C2738       C  0.62829405  0.51855090  0.69497272    -0.06800
C2739       C  0.65827474  0.50012571  0.69165829     0.14100
C2740       C  0.66145538  0.47823990  0.67161273    -0.20300
C2741       C  0.63537558  0.97319645  0.65436463    -0.06800
C2742       C  0.60376472  0.98725057  0.66009323     0.14100
C2743       C  0.57253604  0.97756646  0.64671831    -0.23600
H2744       H  0.57713021  0.52236304  0.68374324     0.15400
H2745       H  0.68545457  0.46695922  0.66785115     0.15400
C2746       C  0.68737617  0.50310163  0.70893367    -0.23600
H2747       H  0.55347644  0.96957481  0.66028709     0.05600
H2748       H  0.57657295  0.95660285  0.63376827     0.08800
H2749       H  0.56269066  0.99897596  0.63647468     0.08800
H2750       H  0.67870683  0.50017731  0.72825642     0.08800
H2751       H  0.69990797  0.52716785  0.70668189     0.08800
H2752       H  0.70643061  0.48372959  0.70522160     0.05600
C2753       C  0.62864235  0.76043917  0.93843391    -0.20200
C2754       C  0.63238993  0.73766122  0.91886195    -0.06800
C2755       C  0.61787631  0.70600158  0.92157916     0.14100
C2756       C  0.59432539  0.70099536  0.94036458    -0.20300
C2757       C  0.58760297  0.72547574  0.95816087    -0.06800
C2758       C  0.60795582  0.75377270  0.95871502     0.14100
C2759       C  0.60867715  0.77637121  0.98085271    -0.23600
H2760       H  0.64092734  0.78408564  0.93765484     0.15400
H2761       H  0.58056922  0.67809080  0.94072250     0.15400
C2762       C  0.62718654  0.67670204  0.90563865    -0.23600
H2763       H  0.62711725  0.79642272  0.97854612     0.05600
H2764       H  0.61563142  0.76203476  0.99733675     0.08800
H2765       H  0.58425469  0.78791180  0.98415748     0.08800
H2766       H  0.64869805  0.68166430  0.89335887     0.08800
H2767       H  0.60551738  0.66897270  0.89446740     0.08800
H2768       H  0.63462288  0.65589525  0.91754436     0.05600
C2769       C  0.60711710  0.69398895  0.80168676    -0.20200
C2770       C  0.63493740  0.68072246  0.78916510    -0.06800
C2771       C  0.66680420  0.69440825  0.79436075     0.14100
C2772       C  0.67001033  0.71791460  0.81328601    -0.20300
C2773       C  0.64256411  0.72950826  0.82692931    -0.06800
C2774       C  0.61043797  0.71876780  0.81988943     0.14100
C2775       C  0.57915954  0.73368037  0.83054668    -0.23600
H2776       H  0.58249573  0.68499814  0.79733489     0.15400
H2777       H  0.69469231  0.72608844  0.81828384     0.15400
C2778       C  0.69817175  0.68454832  0.78057830    -0.23600
H2779       H  0.56286153  0.74198215  0.81540028     0.05600
H2780       H  0.58447152  0.75561759  0.84206680     0.08800
H2781       H  0.56566611  0.71510506  0.84162443     0.08800
H2782       H  0.69473410  0.68804660  0.76050817     0.08800
H2783       H  0.70475643  0.65856714  0.78451681     0.08800
H2784       H  0.71982931  0.69974272  0.78610976     0.05600
C2785       C  0.63809326  0.50770578  0.79945242    -0.20200
C2786       C  0.62522083  0.53972498  0.80160851    -0.06800
C2787       C  0.60801437  0.54947089  0.82336030     0.14100
C2788       C  0.60367624  0.52668024  0.84234904    -0.20300
C2789       C  0.61601791  0.99426722  0.83925066    -0.06800
C2790       C  0.63365179  0.98463933  0.81768925     0.14100
C2791       C  0.64795481  0.95040019  0.81482291    -0.23600
H2792       H  0.65104354  0.50034694  0.78267569     0.15400
H2793       H  0.59098286  0.53403325  0.85922878     0.15400
C2794       C  0.59491078  0.58410564  0.82683503    -0.23600
H2795       H  0.66153834  0.94720364  0.79706321     0.05600
H2796       H  0.62766036  0.93196878  0.81537205     0.08800
H2797       H  0.66563139  0.94548941  0.82996031     0.08800
H2798       H  0.57535206  0.58933730  0.81312602     0.08800
H2799       H  0.61552214  0.60198654  0.82462965     0.08800
H2800       H  0.58374804  0.58790554  0.84543026     0.05600
C2801       C  0.78177965  0.92277820  0.93149226    -0.20200
C2802       C  0.76779478  0.91672516  0.95459913    -0.06800
C2803       C  0.75341973  0.88569602  0.95900229     0.14100
C2804       C  0.75109231  0.86251833  0.93949847    -0.20300
C2805       C  0.76195065  0.86987233  0.91535555    -0.06800
C2806       C  0.77765510  0.90097132  0.91154391     0.14100
C2807       C  0.78773347  0.91361217  0.88651518    -0.23600
H2808       H  0.79408089  0.94616158  0.92860122     0.15400
H2809       H  0.74011712  0.83871434  0.94311279     0.15400
C2810       C  0.74059951  0.87705107  0.98419055    -0.23600
H2811       H  0.79086156  0.94078249  0.88676486     0.05600
H2812       H  0.76836356  0.90797796  0.87270656     0.08800
H2813       H  0.81226060  0.90349255  0.88083406     0.08800
H2814       H  0.72049217  0.89431461  0.98978828     0.08800
H2815       H  0.76111053  0.87869264  0.99769427     0.08800
H2816       H  0.73045841  0.85165283  0.98463423     0.05600
C2817       C  0.80438591  0.55174688  0.01560916    -0.20200
C2818       C  0.77312410  0.53648929  0.01451622    -0.06800
C2819       C  0.74762353  0.54794141  0.03055123     0.14100
C2820       C  0.75480477  0.57252453  0.04812703    -0.20300
C2821       C  0.78749027  0.58393103  0.05189214    -0.06800
C2822       C  0.81265326  0.57347693  0.03493813     0.14100
C2823       C  0.84893976  0.58165507  0.03826699    -0.23600
H2824       H  0.82364846  0.54360314  0.00285453     0.15400
H2825       H  0.73498704  0.58122020  0.06019462     0.15400
C2826       C  0.71348401  0.53274310  0.03063064    -0.23600
H2827       H  0.86518615  0.56631233  0.02606481     0.05600
H2828       H  0.85654929  0.57679078  0.05749408     0.08800
H2829       H  0.85377971  0.60761870  0.03340362     0.08800
H2830       H  0.71547522  0.50572316  0.03331097     0.08800
H2831       H  0.70077827  0.53784851  0.01305173     0.08800
H2832       H  0.69755511  0.54296370  0.04569721     0.05600
C2833       C  0.72296467  0.97024968  0.92578398    -0.20200
C2834       C  0.71542567  0.96753278  0.95086399    -0.06800
C2835       C  0.68272395  0.95949915  0.95826917     0.14100
C2836       C  0.65863347  0.95310346  0.94025530    -0.20300
C2837       C  0.66663284  0.95451889  0.91508254    -0.06800
C2838       C  0.69958371  0.96229551  0.90777342     0.14100
C2839       C  0.71099324  0.96035813  0.88119585    -0.23600
H2840       H  0.74766020  0.97777190  0.92023249     0.15400
H2841       H  0.63331141  0.94765664  0.94580138     0.15400
C2842       C  0.67302345  0.95858215  0.98509811    -0.23600
H2843       H  0.73809394  0.96463165  0.87938930     0.05600
H2844       H  0.69893161  0.97932020  0.86982783     0.08800
H2845       H  0.70557282  0.93551345  0.87350712     0.08800
H2846       H  0.67635512  0.98335161  0.99352684     0.08800
H2847       H  0.68875064  0.94068923  0.99497675     0.08800
H2848       H  0.64662176  0.95136511  0.98766170     0.05600
C2849       C  0.87455718  0.99001750  0.03815204    -0.20200
C2850       C  0.86319645  0.99691675  0.06216591    -0.06800
C2851       C  0.82864110  0.99626750  0.06728938     0.14100
C2852       C  0.80661251  0.98671278  0.04871755    -0.20300
C2853       C  0.81779463  0.98026957  0.02459015    -0.06800
C2854       C  0.85222468  0.98221881  0.01918160     0.14100
C2855       C  0.86533552  0.97757565  0.99330169    -0.23600
H2856       H  0.90101999  0.99072352  0.03425869     0.15400
H2857       H  0.78013598  0.98623084  0.05261904     0.15400
C2858       C  0.81460363  0.00777116  0.09177288    -0.23600
H2859       H  0.89260539  0.98160433  0.99222211     0.05600
H2860       H  0.85311665  0.49574338  0.98088749     0.08800
H2861       H  0.86038274  0.95213670  0.98671959     0.08800
H2862       H  0.82374419  0.53373442  0.09593212     0.08800
H2863       H  0.82194378  0.99097740  0.10672778     0.08800
H2864       H  0.78699873  0.00870964  0.09158858     0.05600
C2865       C  0.98400558  0.70691926  0.04833064    -0.20200
C2866       C  0.97401738  0.71477437  0.02434414    -0.06800
C2867       C  0.93950339  0.71850234  0.01957031     0.14100
C2868       C  0.91631774  0.71185364  0.03842454    -0.20300
C2869       C  0.92659505  0.70244457  0.06194553    -0.06800
C2870       C  0.96091439  0.69974475  0.06690812     0.14100
C2871       C  0.97341388  0.68774197  0.09137837    -0.23600
H2872       H  0.01030528  0.70508072  0.05229725     0.15400
H2873       H  0.88995483  0.71473781  0.03499380     0.15400
C2874       C  0.92650938  0.72928370  0.99491444    -0.23600
H2875       H  0.00085065  0.68446429  0.09122846     0.05600
H2876       H  0.96205117  0.66354935  0.09560990     0.08800
H2877       H  0.96721056  0.70559429  0.10630213     0.08800
H2878       H  0.93819887  0.71505660  0.97959043     0.08800
H2879       H  0.93132304  0.75588720  0.99236132     0.08800
H2880       H  0.89918301  0.72587983  0.99366489     0.05600
C2881       C  0.82713767  0.71297158  0.40882006    -0.20200
C2882       C  0.86013363  0.70693552  0.41605331    -0.06800
C2883       C  0.86846020  0.71101767  0.44118824     0.14100
C2884       C  0.84323443  0.71880898  0.45845592    -0.20300
C2885       C  0.81010715  0.72323843  0.45114518    -0.06800
C2886       C  0.80244370  0.72225760  0.42588015     0.14100
C2887       C  0.76859269  0.73216863  0.41681056    -0.23600
H2888       H  0.82078790  0.71115252  0.38949626     0.15400
H2889       H  0.84909297  0.72020641  0.47788111     0.15400
C2890       C  0.90381115  0.70810936  0.44988374    -0.23600
H2891       H  0.76728955  0.73130072  0.39639682     0.05600
H2892       H  0.76291577  0.75775184  0.42301008     0.08800
H2893       H  0.74930374  0.71557364  0.42405393     0.08800
H2894       H  0.91994469  0.72526308  0.43945112     0.08800
H2895       H  0.91298511  0.68251723  0.44732888     0.08800
H2896       H  0.90593688  0.71438266  0.46976144     0.05600
C2897       C  0.92832867  0.91728910  0.16762498    -0.20200
C2898       C  0.89948404  0.91851918  0.18252790    -0.06800
C2899       C  0.87385067  0.94109762  0.17671972     0.14100
C2900       C  0.87820787  0.96213300  0.15658612    -0.20300
C2901       C  0.90728010  0.96098638  0.14210209    -0.06800
C2902       C  0.93242078  0.93797733  0.14742075     0.14100
C2903       C  0.96298201  0.93424211  0.13131359    -0.23600
H2904       H  0.94777769  0.89958613  0.17154225     0.15400
H2905       H  0.85883653  0.97967126  0.15206268     0.15400
C2906       C  0.84223605  0.94373455  0.19170815    -0.23600
H2907       H  0.97921007  0.91375911  0.13746767     0.05600
H2908       H  0.97793107  0.95710999  0.13183781     0.08800
H2909       H  0.95550972  0.92889228  0.11205273     0.08800
H2910       H  0.84820055  0.94924360  0.21123973     0.08800
H2911       H  0.82817477  0.92032344  0.19040665     0.08800
H2912       H  0.82574955  0.96370046  0.18500945     0.05600
C2913       C  0.91123842  0.73624416  0.15735526    -0.20200
C2914       C  0.88264353  0.73919028  0.14283894    -0.06800
C2915       C  0.85918183  0.76410221  0.14830267     0.14100
C2916       C  0.86448865  0.78505977  0.16851428    -0.20300
C2917       C  0.89298965  0.78223179  0.18326089    -0.06800
C2918       C  0.91682304  0.75752371  0.17748551     0.14100
C2919       C  0.94771274  0.75293108  0.19258924    -0.23600
H2920       H  0.92936559  0.71724431  0.15276734     0.15400
H2921       H  0.84641260  0.80431003  0.17252341     0.15400
C2922       C  0.82922805  0.76949705  0.13230346    -0.23600
H2923       H  0.96263365  0.73140024  0.18607187     0.05600
H2924       H  0.94076934  0.74878242  0.21213809     0.08800
H2925       H  0.96371619  0.77504734  0.19120739     0.08800
H2926       H  0.81288794  0.74757645  0.13272680     0.08800
H2927       H  0.83738304  0.77400767  0.11305239     0.08800
H2928       H  0.81424095  0.79106847  0.13863747     0.05600
C2929       C  0.93042358  0.76616312  0.33280586    -0.20200
C2930       C  0.90578480  0.74241162  0.33599403    -0.06800
C2931       C  0.87951361  0.74000197  0.31897899     0.14100
C2932       C  0.87845220  0.76174423  0.29907895    -0.20300
C2933       C  0.90324859  0.78553443  0.29568456    -0.06800
C2934       C  0.92953453  0.78789445  0.31295053     0.14100
C2935       C  0.95619381  0.81385766  0.31125751    -0.23600
H2936       H  0.95032985  0.76781664  0.34609928     0.15400
H2937       H  0.85840343  0.75987110  0.28593184     0.15400
C2938       C  0.85305268  0.71402753  0.32149803    -0.23600
H2939       H  0.97297675  0.81341835  0.32739086     0.05600
H2940       H  0.94460455  0.83871897  0.31058961     0.08800
H2941       H  0.97187785  0.80953064  0.29462647     0.08800
H2942       H  0.83899530  0.71777305  0.33897415     0.08800
H2943       H  0.86477041  0.68920062  0.32142285     0.08800
H2944       H  0.83501223  0.71489843  0.30614458     0.05600
C2945       C  0.94371324  0.51496047  0.45643592    -0.20200
C2946       C  0.96186318  0.98354713  0.45689245    -0.06800
C2947       C  0.95553383  0.95970661  0.43840021     0.14100
C2948       C  0.93136878  0.96625685  0.42061075    -0.20300
C2949       C  0.91604626  0.99750348  0.41866416    -0.06800
C2950       C  0.92380581  0.52309410  0.43623598     0.14100
C2951       C  0.91368800  0.55877014  0.43413554    -0.23600
H2952       H  0.94824862  0.53357729  0.47045234     0.15400
H2953       H  0.92564836  0.94701618  0.40738227     0.15400
C2954       C  0.97577119  0.92842495  0.43596247    -0.23600
H2955       H  0.93510406  0.57485567  0.43850905     0.05600
H2956       H  0.89350693  0.56433258  0.44760024     0.08800
H2957       H  0.90613306  0.56559114  0.41531238     0.08800
H2958       H  0.97067122  0.91194846  0.45164847     0.08800
H2959       H  0.00268622  0.93436384  0.43516095     0.08800
H2960       H  0.96966866  0.91448414  0.41889419     0.05600
C2961       C  0.90910964  0.97355359  0.31466033    -0.20200
C2962       C  0.88636679  0.96615220  0.33353846    -0.06800
C2963       C  0.86946422  0.93580136  0.33315919     0.14100
C2964       C  0.87491359  0.91386983  0.31352065    -0.20300
C2965       C  0.89707240  0.92132568  0.29429593    -0.06800
C2966       C  0.91462449  0.95140256  0.29488618     0.14100
C2967       C  0.93801319  0.96068670  0.27434556    -0.23600
H2968       H  0.92224797  0.99679901  0.31530552     0.15400
H2969       H  0.86165053  0.89066388  0.31310858     0.15400
C2970       C  0.84584837  0.92640345  0.35360681    -0.23600
H2971       H  0.94874519  0.98556056  0.27735991     0.05600
H2972       H  0.92448042  0.96080326  0.25660545     0.08800
H2973       H  0.95885395  0.94271711  0.27315236     0.08800
H2974       H  0.82494749  0.94431516  0.35473243     0.08800
H2975       H  0.85919866  0.92632034  0.37141860     0.08800
H2976       H  0.83519544  0.90149673  0.35058336     0.05600
loop_ 
_geom_bond_atom_site_label_1 
_geom_bond_atom_site_label_2 
_geom_bond_distance 
_geom_bond_site_symmetry_2 
_ccdc_geom_bond_type 
C1            C6   1.391       .  A
C1          C746   1.398       .  A
C1          C730   1.475       .  S
C2            C3   1.414       .  A
C2          C745   1.398   1_545  A
C2            H7   1.078       .  S
C3            C4   1.422       .  A
C3          C210   1.521       .  S
C4            C5   1.415       .  A
C4            H8   1.073       .  S
C5          C750   1.405   1_545  A
C5         C1461   1.506   1_545  S
C6          C749   1.404       .  A
C6            H9   1.083       .  S
O10         Cu18   1.977       .  S
O10          C20   1.274       .  A
O11         Cu18   1.975       .  S
O11          C21   1.273       .  A
O12         Cu18   2.029       .  S
O12          C22   1.281       .  A
O13         Cu18   2.028       .  S
O13          C23   1.282       .  A
O14         Cu19   1.978       .  S
O14          C23   1.272       .  A
O15         Cu19   1.972       .  S
O15          C22   1.274       .  A
O16         Cu19   2.032       .  S
O16          C21   1.281       .  A
O17         Cu19   2.033       .  S
O17          C20   1.281       .  A
Cu18        Cu19   2.370       .  S
C20         C685   1.484       .  S
C21         C733   1.473       .  S
C22         C666   1.483       .  S
C23         C701   1.482       .  S
C24          C25   1.386       .  A
C24          C29   1.394       .  A
C24         C698   1.475       .  S
C25          C26   1.399       .  A
C25          H30   1.085       .  S
C26          C27   1.419       .  A
C26         C650   1.491       .  S
C27          C28   1.422       .  A
C27          H31   1.079       .  S
C28          C29   1.417       .  A
C28         C203   1.518       .  S
C29          H32   1.078       .  S
C33          C34   1.402       .  A
C33          C38   1.391       .  A
C33         C682   1.478       .  S
C34          C35   1.417       .  A
C34          H39   1.078       .  S
C35          C36   1.419       .  A
C35         C178   1.512       .  S
C36          C37   1.409       .  A
C36          H40   1.081       .  S
C37          C38   1.395       .  A
C37         C637   1.481       .  S
C38          H41   1.084       .  S
C42          C43   1.390       .  A
C42         C791   1.399       .  A
C42         C669   1.474       .  S
C43         C788   1.395       .  A
C43          H48   1.084       .  S
C44          C45   1.411       .  A
C44         C787   1.395   1_545  A
C44        C1362   1.484   1_545  S
C45          C46   1.420       .  A
C45          H49   1.081       .  S
C46          C47   1.412       .  A
C46         C169   1.509       .  S
C47         C786   1.399   1_545  A
C47          H50   1.079       .  S
C51          C56   1.409   1_554  A
C51         C796   1.423       .  A
C51         C621   1.491       .  S
C52          C53   1.404   1_554  A
C52         C795   1.424   1_545  A
C52         C586   1.502       .  S
C53         C798   1.404   1_545  A
C53          H58   1.082       .  S
C54          C55   1.418       .  A
C54         C797   1.404       .  A
C54         C602   1.484       .  S
C55          C56   1.403       .  A
C55         C570   1.495       .  S
C56          H57   1.083       .  S
C59          C60   1.397       .  A
C59          C64   1.386       .  A
C59         C557   1.475       .  S
C60          C61   1.419       .  A
C60          H65   1.078       .  S
C61          C62   1.419       .  A
C61         C142   1.511       .  S
C62          C63   1.410       .  A
C62          H66   1.080       .  S
C63          C64   1.395       .  A
C63         C605   1.481       .  S
C64          H67   1.084       .  S
C68          C69   1.400       .  A
C68          C73   1.408       .  A
C68         C541   1.502       .  S
C69          C70   1.408       .  A
C69          H74   1.080       .  S
C70          C71   1.412       .  A
C70         C522   1.501       .  S
C71          C72   1.411       .  A
C71          H75   1.081       .  S
C72          C73   1.416       .  A
C72         C135   1.509       .  S
C73          H76   1.081       .  S
O77         Cu85   2.066       .  S
O77          C87   1.286       .  A
O78         Cu85   2.068       .  S
O78          C88   1.287       .  A
O79         Cu85   1.983       .  S
O79          C89   1.272       .  A
O80         Cu85   1.976       .  S
O80          C90   1.271       .  A
O81         Cu86   2.037       .  S
O81          C90   1.282       .  A
O82         Cu86   2.039       .  S
O82          C89   1.282       .  A
O83         Cu86   1.965       .  S
O83          C88   1.269       .  A
O84         Cu86   1.968       .  S
O84          C87   1.270       .  A
Cu85        Cu86   2.364       .  S
C87         C506   1.496       .  S
C88         C538   1.503       .  S
C89         C490   1.477       .  S
C90         C554   1.473       .  S
C91          C92   1.406       .  A
C91          C96   1.397       .  A
C91         C509   1.498       .  S
C92          C93   1.416       .  A
C92          H97   1.081       .  S
C93          C94   1.416       .  A
C93         C151   1.510       .  S
C94          C95   1.415       .  A
C94          H98   1.080       .  S
C95          C96   1.403       .  A
C95         C477   1.502       .  S
C96          H99   1.083       .  S
C100        C101   1.404       .  A
C100        C105   1.393       .  A
C100        C493   1.481       .  S
C101        C102   1.416       .  A
C101        H106   1.080       .  S
C102        C103   1.415       .  A
C102        C162   1.508       .  S
C103        C104   1.410       .  A
C103        H107   1.082       .  S
C104        C105   1.397       .  A
C104        C458   1.492       .  S
C105        H108   1.079       .  S
C109        C114   1.403   1_554  A
C109       C1598   1.425       .  A
C109        C426   1.494       .  S
C110        C111   1.405   1_554  A
C110       C1597   1.425       .  A
C110        C634   1.500       .  S
C111       C1600   1.405       .  A
C111        H116   1.074       .  S
C112        C113   1.426       .  A
C112       C1599   1.405       .  A
C112        C445   1.500       .  S
C113        C114   1.403       .  A
C113        C525   1.496       .  S
C114        H115   1.084       .  S
O117       Cu125   1.996       .  S
O117        C127   1.274       .  A
O118       Cu125   1.979       .  S
O118        C128   1.273       .  A
O119       Cu125   2.039       .  S
O119        C129   1.281       .  A
O120       Cu125   2.039       .  S
O120        C130   1.283       .  A
O121       Cu126   1.986       .  S
O121        C130   1.273       .  A
O122       Cu126   1.982       .  S
O122        C129   1.273       .  A
O123       Cu126   2.028       .  S
O123        C128   1.280       .  A
O124       Cu126   2.039       .  S
O124        C127   1.283       .  A
Cu125      Cu126   2.372       .  S
C127        C410   1.491       .  S
C128        C381   1.474       .  S
C129        C362   1.473       .  S
C130        C394   1.482       .  S
C131        C132   1.395       .  A
C131        C136   1.395       .  A
C131        C397   1.480       .  S
C132        C133   1.406       .  A
C132        H137   1.076       .  S
C133        C134   1.421       .  A
C133        C573   1.514       .  S
C134        C135   1.422       .  A
C134        H138   1.082       .  S
C135        C136   1.410       .  A
C136        H139   1.081       .  S
C140        C141   1.396       .  A
C140        C145   1.390       .  A
C140       C1866   1.473       .  S
C141        C142   1.414       .  A
C141        H146   1.078       .  S
C142        C143   1.420       .  A
C143        C144   1.411       .  A
C143        H147   1.080       .  S
C144        C145   1.398       .  A
C144        C442   1.487       .  S
C145        H148   1.084       .  S
C149        C150   1.398       .  A
C149        C154   1.393       .  A
C149        C413   1.483       .  S
C150        C151   1.416       .  A
C150        H155   1.081       .  S
C151        C152   1.421       .  A
C152        C153   1.417       .  A
C152        H156   1.082       .  S
C153        C154   1.402       .  A
C153        C346   1.500       .  S
C154        H157   1.081       .  S
C158        C159   1.396       .  A
C158        C163   1.403       .  A
C158       C1853   1.482       .  S
C159        C160   1.402       .  A
C159        H164   1.085       .  S
C160        C161   1.409       .  A
C160        C333   1.497       .  S
C161        C162   1.417       .  A
C161        H165   1.079       .  S
C162        C163   1.414       .  A
C163        H166   1.079       .  S
C167        C172   1.392       .  A
C167       C1656   1.400   1_455  A
C167        C314   1.482       .  S
C168        C169   1.418       .  A
C168       C1655   1.400       .  A
C168        H173   1.079       .  S
C169        C170   1.415       .  A
C170        C171   1.411       .  A
C170        H174   1.080       .  S
C171       C1660   1.403       .  A
C171        C429   1.497       .  S
C172       C1659   1.403   1_455  A
C172        H175   1.082       .  S
C176        C177   1.401       .  A
C176        C181   1.397       .  A
C176        C301   1.487       .  S
C177        C178   1.413       .  A
C177        H182   1.079       .  S
C178        C179   1.415       .  A
C179        C180   1.413       .  A
C179        H183   1.076       .  S
C180        C181   1.410       .  A
C180        C589   1.507       .  S
C181        H184   1.082       .  S
O185       Cu193   2.039       .  S
O185        C195   1.281       .  A
O186       Cu193   2.040       .  S
O186        C196   1.281       .  A
O187       Cu193   1.990       .  S
O187        C197   1.274       .  A
O188       Cu193   1.986       .  S
O188        C198   1.276       .  A
O189       Cu194   2.037       .  S
O189        C198   1.281       .  A
O190       Cu194   2.041       .  S
O190        C197   1.282       .  A
O191       Cu194   1.995       .  S
O191        C196   1.277       .  A
O192       Cu194   1.994       .  S
O192        C195   1.275       .  A
Cu193      Cu194   2.364       .  S
C195        C317   1.481       .  S
C196        C285   1.496       .  S
C197        C298   1.496       .  S
C198        C266   1.498       .  S
C199        C200   1.391       .  A
C199       C1692   1.398   1_455  A
C199        C269   1.485       .  S
C200       C1689   1.399   1_455  A
C200        H205   1.084       .  S
C201        C202   1.417       .  A
C201       C1688   1.399       .  A
C201        C250   1.491       .  S
C202        C203   1.423       .  A
C202        H206   1.080       .  S
C203        C204   1.418       .  A
C204       C1687   1.398       .  A
C204        H207   1.078       .  S
C208        C209   1.402       .  A
C208        C213   1.397       .  A
C208        C282   1.487       .  S
C209        C210   1.418       .  A
C209        H214   1.077       .  S
C210        C211   1.417       .  A
C211        C212   1.410       .  A
C211        H215   1.073       .  S
C212        C213   1.406       .  A
C212        C234   1.500       .  S
C213        H216   1.083       .  S
C217        C222   1.405       .  A
C217       C2450   1.425       .  A
C217        C714   1.499       .  S
C218        C219   1.407       .  A
C218       C2449   1.425   1_445  A
C218        C253   1.498       .  S
C219        C964   1.405   1_545  A
C219        H224   1.083       .  S
C220        C221   1.421       .  A
C220        C963   1.404       .  A
C220        C474   1.490       .  S
C221       C1710   1.403   1_455  A
C221        C330   1.500       .  S
C222       C1709   1.403       .  A
C222        H223   1.078       .  S
C225        C226   1.426       .  A
C225        C230   1.404       .  A
C225        C237   1.502       .  S
C226        C227   1.407       .  A
C226        C653   1.488       .  S
C227        C228   1.404       .  A
C227        H232   1.084       .  S
C228        C229   1.416       .  A
C228        C349   1.494       .  S
C229        C230   1.401       .  A
C229        C461   1.481       .  S
C230        H231   1.082       .  S
C233        C234   1.409       .  A
C233        C238   1.407       .  A
C233        H240   1.084       .  S
C234        C235   1.420       .  A
C235        C236   1.403       .  A
C235        C242   1.509       .  S
C236        C237   1.404       .  A
C236        H241   1.082       .  S
C237        C238   1.417       .  A
C238        C239   1.510       .  S
C239        H243   1.111       .  S
C239        H244   1.109       .  S
C239        H245   1.108       .  S
C242        H246   1.110       .  S
C242        H247   1.104       .  S
C242        H248   1.111       .  S
C249        C254   1.412       .  A
C249       C1738   1.406   1_455  A
C249        H256   1.084       .  S
C250        C251   1.419       .  A
C250       C1737   1.406       .  A
C251        C252   1.399       .  A
C251        C258   1.512       .  S
C252       C1741   1.402       .  A
C252       H1001   1.084   1_545  S
C253        C254   1.418       .  A
C253       C1740   1.402       .  A
C254        C255   1.506       .  S
C255        H259   1.111       .  S
C255        H260   1.108       .  S
C255        H261   1.110   1_455  S
H257        C996   1.084       .  S
C258        H262   1.106       .  S
C258        H263   1.111       .  S
C258        H264   1.111       .  S
C265        C266   1.411       .  A
C265        C270   1.401       .  A
C265        H272   1.083       .  S
C266        C267   1.421       .  A
C267        C268   1.408       .  A
C267        C274   1.507       .  S
C268        C269   1.404       .  A
C268        H273   1.084       .  S
C269        C270   1.410       .  A
C270        C271   1.510       .  S
C271        H275   1.111       .  S
C271        H276   1.110       .  S
C271        H277   1.108       .  S
C274        H278   1.110       .  S
C274        H279   1.110       .  S
C274        H280   1.111       .  S
C281        C282   1.405       .  A
C281        C286   1.413       .  A
C281        H288   1.084       .  S
C282        C283   1.412       .  A
C283        C284   1.401       .  A
C283        C290   1.510       .  S
C284        C285   1.408       .  A
C284        H289   1.084       .  S
C285        C286   1.420       .  A
C286        C287   1.506       .  S
C287        H291   1.111       .  S
C287        H292   1.110       .  S
C287        H293   1.110       .  S
C290        H294   1.111       .  S
C290        H295   1.109       .  S
C290        H296   1.111       .  S
C297        C298   1.410       .  A
C297        C302   1.411       .  A
C297        H304   1.084       .  S
C298        C299   1.424       .  A
C299        C300   1.402       .  A
C299        C306   1.510       .  S
C300        C301   1.399       .  A
C300        H305   1.085       .  S
C301        C302   1.412       .  A
C302        C303   1.505       .  S
C303        H307   1.111       .  S
C303        H308   1.110       .  S
C303        H309   1.108       .  S
C306        H310   1.109       .  S
C306        H311   1.111       .  S
C306        H312   1.111       .  S
C313        C314   1.400       .  A
C313        C318   1.399       .  A
C313        H320   1.085       .  S
C314        C315   1.411       .  A
C315        C316   1.412       .  A
C315       C1810   1.505   1_455  S
C316        C317   1.408       .  A
C316        H321   1.084       .  S
C317        C318   1.417       .  A
C318        C319   1.510       .  S
C319        H323   1.110       .  S
C319        H324   1.106       .  S
C319        H325   1.111       .  S
C322       C1803   1.505       .  S
C322        H326   1.110       .  S
C322        H327   1.111       .  S
C322        H328   1.111       .  S
C329        C330   1.408       .  A
C329        C334   1.406       .  A
C329        H336   1.084       .  S
C330        C331   1.414       .  A
C331        C332   1.405       .  A
C331       C1826   1.509   1_455  S
C332        C333   1.410       .  A
C332       H1825   1.084   1_455  S
C333        C334   1.416       .  A
C334        C335   1.507       .  S
C335        H339   1.111       .  S
C335        H340   1.107       .  S
C335        H341   1.108       .  S
H337       C1820   1.084       .  S
C338       C1819   1.509       .  S
C338        H342   1.108       .  S
C338        H343   1.109       .  S
C338        H344   1.111       .  S
C345        C346   1.409       .  A
C345        C350   1.412       .  A
C345        H352   1.084       .  S
C346        C347   1.422       .  A
C347        C348   1.400       .  A
C347        C354   1.511       .  S
C348        C349   1.399       .  A
C348        H353   1.083       .  S
C349        C350   1.415       .  A
C350        C351   1.505       .  S
C351        H355   1.110       .  S
C351        H356   1.108       .  S
C351        H357   1.110       .  S
C354        H358   1.110       .  S
C354        H359   1.104       .  S
C354        H360   1.109       .  S
C361        C362   1.407       .  A
C361       C1854   1.413       .  A
C361        H368   1.084       .  S
C362        C363   1.410       .  A
C363        C364   1.395       .  A
C363        C370   1.509       .  S
C364        C365   1.403       .  A
C364        H369   1.085       .  S
C365       C1854   1.413       .  A
C365       C1646   1.482       .  S
C366       C1849   1.413       .  A
C366       C1853   1.413       .  A
C366        C367   1.505       .  S
C367        H371   1.111       .  S
C367        H372   1.110       .  S
C367        H373   1.109       .  S
C370        H374   1.107       .  S
C370        H375   1.109       .  S
C370        H376   1.111       .  S
C377        C378   1.397       .  A
C377        C382   1.398       .  A
C377       H1872   1.085       .  S
C378        C379   1.411       .  A
C378       C1628   1.473       .  S
C379        C380   1.406       .  A
C379        C386   1.505       .  S
C380        C381   1.404       .  A
C380        H385   1.084       .  S
C381        C382   1.418       .  A
C382        C383   1.510       .  S
C383        H387   1.111       .  S
C383        H388   1.109       .  S
C383        H389   1.109       .  S
H384       C1865   1.085       .  S
C386        H390   1.110       .  S
C386        H391   1.110       .  S
C386        H392   1.111       .  S
C393        C394   1.401       .  A
C393        C398   1.406       .  A
C393        H400   1.084       .  S
C394        C395   1.422       .  A
C395        C396   1.405       .  A
C395        C402   1.509       .  S
C396        C397   1.398       .  A
C396        H401   1.084       .  S
C397        C398   1.414       .  A
C398        C399   1.507       .  S
C399        H403   1.111       .  S
C399        H404   1.109       .  S
C399        H405   1.110       .  S
C402        H406   1.109       .  S
C402        H407   1.109       .  S
C402        H408   1.111       .  S
C409        C410   1.404       .  A
C409        C414   1.404       .  A
C409        H416   1.084       .  S
C410        C411   1.424       .  A
C411        C412   1.408       .  A
C411        C418   1.508       .  S
C412        C413   1.399       .  A
C412        H417   1.084       .  S
C413        C414   1.416       .  A
C414        C415   1.508       .  S
C415        H419   1.111       .  S
C415        H420   1.110       .  S
C415        H421   1.107       .  S
C418        H422   1.108       .  S
C418        H423   1.109       .  S
C418        H424   1.111       .  S
C425        C426   1.401       .  A
C425        C430   1.401       .  A
C425        H432   1.084       .  S
C426       C1915   1.414   1_455  A
C427        C428   1.403       .  A
C427       C1914   1.414       .  A
C427        C434   1.505   1_554  S
C428        C429   1.407       .  A
C428        H433   1.083       .  S
C429       C1918   1.422       .  A
C430       C1917   1.422       .  A
C430        C431   1.508       .  S
C431        H435   1.111       .  S
C431        H436   1.109       .  S
C431        H437   1.110       .  S
C434        H438   1.110       .  S
C434        H439   1.097       .  S
C434        H440   1.111       .  S
C441        C442   1.404       .  A
C441        C446   1.411       .  A
C441       H1936   1.084       .  S
C442        C443   1.414       .  A
C443        C444   1.395       .  A
C443        C450   1.507       .  S
C444        C445   1.403       .  A
C444        H449   1.083       .  S
C445        C446   1.422       .  A
C446       C1935   1.509       .  S
C447       C1934   1.509       .  S
C447        H451   1.111       .  S
C447        H452   1.108       .  S
C447        H453   1.108       .  S
H448       C1929   1.084       .  S
C450        H454   1.110       .  S
C450        H455   1.107       .  S
C450        H456   1.111       .  S
C457        C458   1.408       .  A
C457        C462   1.403       .  A
C457        H464   1.084       .  S
C458        C459   1.424       .  A
C459        C460   1.402       .  A
C459        C466   1.512       .  S
C460        C461   1.397       .  A
C460        H465   1.084       .  S
C461        C462   1.408       .  A
C462        C463   1.506       .  S
C463        H467   1.111       .  S
C463        H468   1.110       .  S
C463        H469   1.108       .  S
C466        H470   1.105       .  S
C466        H471   1.110       .  S
C466        H472   1.110       .  S
C473        C474   1.405       .  A
C473        C478   1.412       .  A
C473        H480   1.084       .  S
C474        C475   1.410       .  A
C475        C476   1.395       .  A
C475        C482   1.507       .  S
C476        C477   1.410       .  A
C476        H481   1.083       .  S
C477        C478   1.422       .  A
C478        C479   1.505       .  S
C479        H484   1.110       .  S
C479       H1227   1.111       .  S
C479       H1229   1.107       .  S
C482        H486   1.110       .  S
C482        H487   1.108       .  S
C482        H488   1.110       .  S
H483       C1223   1.111       .  S
H485       C1223   1.107       .  S
C489        C490   1.401       .  A
C489        C494   1.405       .  A
C489        H496   1.084       .  S
C490        C491   1.416       .  A
C491        C492   1.405       .  A
C491        C498   1.508       .  S
C492        C493   1.402       .  A
C492        H497   1.084       .  S
C493        C494   1.415       .  A
C494        C495   1.507       .  S
C495        H499   1.111       .  S
C495        H500   1.110       .  S
C495        H501   1.111       .  S
C498        H502   1.109       .  S
C498        H503   1.111       .  S
C498        H504   1.111       .  S
C505        C506   1.404       .  A
C505       C1254   1.409   1_545  A
C505        H512   1.084       .  S
C506        C507   1.425       .  A
C507        C508   1.403   1_545  A
C507        C514   1.511       .  S
C508       C1253   1.401       .  A
C508        H513   1.083       .  S
C509        C510   1.422       .  A
C509       C1252   1.401       .  A
C510       C1249   1.408       .  A
C510        C511   1.508       .  S
C511        H515   1.111       .  S
C511        H516   1.109       .  S
C511        H517   1.110       .  S
C514        H518   1.111   1_545  S
C514        H519   1.108       .  S
C514        H520   1.111   1_545  S
C521        C522   1.408       .  A
C521        C526   1.404       .  A
C521        H528   1.082       .  S
C522        C523   1.422       .  A
C523        C524   1.403       .  A
C523        C530   1.508       .  S
C524        C525   1.403       .  A
C524        H529   1.084       .  S
C525        C526   1.413       .  A
C526        C527   1.505       .  S
C527        H531   1.111       .  S
C527        H532   1.110       .  S
C527        H533   1.099       .  S
C530        H534   1.108       .  S
C530        H535   1.111       .  S
C530        H536   1.111       .  S
C537        C538   1.407       .  A
C537        C542   1.411       .  A
C537        H544   1.084       .  S
C538        C539   1.429       .  A
C539        C540   1.403       .  A
C539        C546   1.512       .  S
C540        C541   1.401       .  A
C540        H545   1.084       .  S
C541        C542   1.420       .  A
C542        C543   1.503       .  S
C543        H547   1.110       .  S
C543        H548   1.106       .  S
C543        H549   1.110       .  S
C546        H550   1.111       .  S
C546        H551   1.110       .  S
C546        H552   1.111       .  S
C553        C554   1.400       .  A
C553       C1302   1.404   1_545  A
C553        H560   1.084       .  S
C554        C555   1.416       .  A
C555        C556   1.403       .  A
C555        C562   1.509       .  S
C556       C1301   1.399   1_545  A
C556        H561   1.084       .  S
C557        C558   1.414       .  A
C557       C1300   1.399       .  A
C558       C1297   1.403       .  A
C558        C559   1.508       .  S
C559        H563   1.111       .  S
C559        H564   1.110       .  S
C559        H565   1.111       .  S
C562        H566   1.109       .  S
C562        H567   1.111       .  S
C562        H568   1.111       .  S
C569        C570   1.395       .  A
C569        C574   1.403       .  A
C569        H576   1.085       .  S
C570        C571   1.410       .  A
C571        C572   1.413       .  A
C571        C578   1.503       .  S
C572        C573   1.414       .  A
C572        H577   1.083       .  S
C573        C574   1.431       .  A
C574        C575   1.511       .  S
C575        H579   1.110       .  S
C575        H580   1.109       .  S
C575        H581   1.107       .  S
C578        H582   1.106       .  S
C578        H583   1.110       .  S
C578        H584   1.111       .  S
C585        C586   1.405       .  A
C585        C590   1.407       .  A
C585        H592   1.083       .  S
C586        C587   1.414       .  A
C587        C588   1.406       .  A
C587        C594   1.508       .  S
C588        C589   1.411       .  A
C588        H593   1.083       .  S
C589        C590   1.423       .  A
C590        C591   1.510       .  S
C591        H595   1.111       .  S
C591        H596   1.110       .  S
C591        H597   1.107       .  S
C594        H598   1.110       .  S
C594        H599   1.108       .  S
C594        H600   1.111       .  S
C601        C602   1.399       .  A
C601        C606   1.399       .  A
C601        H608   1.082       .  S
C602        C603   1.412       .  A
C603        C604   1.406       .  A
C603        C610   1.506       .  S
C604        C605   1.403       .  A
C604        H609   1.084       .  S
C605        C606   1.418       .  A
C606        C607   1.512       .  S
C607        H611   1.108       .  S
C607        H612   1.105       .  S
C607        H613   1.111       .  S
C610        H614   1.109       .  S
C610        H615   1.107       .  S
C610        H616   1.111       .  S
C617        C618   1.403       .  A
C617        C622   1.407       .  A
C617        H624   1.084       .  S
C618        C619   1.415       .  A
C618        C788   1.484       .  S
C619        C620   1.401       .  A
C619        C626   1.509       .  S
C620        C621   1.404       .  A
C620        H625   1.084       .  S
C621        C622   1.416       .  A
C622        C623   1.507   1_554  S
C623        H627   1.111       .  S
C623        H629   1.108       .  S
C623       H1372   1.110       .  S
C626        H631   1.107       .  S
C626        H632   1.111       .  S
C626       H1374   1.110       .  S
H628       C1367   1.110       .  S
H630       C1370   1.111       .  S
C633        C634   1.406       .  A
C633        C638   1.399       .  A
C633        H640   1.084       .  S
C634        C635   1.422       .  A
C635        C636   1.408       .  A
C635        C642   1.510   1_554  S
C636        C637   1.402       .  A
C636        H641   1.084       .  S
C637        C638   1.412       .  A
C638        C639   1.510       .  S
C639        H643   1.111       .  S
C639        H644   1.110       .  S
C639        H645   1.108       .  S
C642        H646   1.108       .  S
C642        H647   1.108       .  S
C642        H648   1.111       .  S
C649        C650   1.408       .  A
C649        C654   1.400       .  A
C649        H656   1.084       .  S
C650        C651   1.416       .  A
C651        C652   1.409       .  A
C651        C658   1.506       .  S
C652        C653   1.405       .  A
C652        H657   1.084       .  S
C653        C654   1.409       .  A
C654        C655   1.506       .  S
C655        H659   1.111       .  S
C655        H660   1.110       .  S
C655        H661   1.102       .  S
C658        H662   1.110       .  S
C658        H663   1.108       .  S
C658        H664   1.111       .  S
C665        C666   1.409       .  A
C665        C670   1.398       .  A
C665        H672   1.084       .  S
C666        C667   1.416       .  A
C667        C668   1.405       .  A
C667        C674   1.507       .  S
C668        C669   1.404       .  A
C668        H673   1.084       .  S
C669        C670   1.407       .  A
C670        C671   1.508       .  S
C671        H675   1.111       .  S
C671        H676   1.108       .  S
C671        H677   1.110       .  S
C674        H678   1.110       .  S
C674        H679   1.110       .  S
C674        H680   1.111       .  S
C681        C682   1.405       .  A
C681        C686   1.406       .  A
C681        H688   1.084       .  S
C682        C683   1.408       .  A
C683        C684   1.400       .  A
C683        C690   1.508       .  S
C684        C685   1.409       .  A
C684        H689   1.084       .  S
C685        C686   1.415       .  A
C686        C687   1.507       .  S
C687        H691   1.111       .  S
C687        H692   1.110       .  S
C687        H693   1.110       .  S
C690        H694   1.109       .  S
C690        H695   1.111       .  S
C690        H696   1.111       .  S
C697        C698   1.396       .  A
C697        C702   1.401       .  A
C697        H704   1.084       .  S
C698        C699   1.413       .  A
C699        C700   1.403       .  A
C699        C706   1.508       .  S
C700        C701   1.404       .  A
C700        H705   1.084       .  S
C701        C702   1.422       .  A
C702        C703   1.510       .  S
C703        H707   1.111       .  S
C703        H708   1.111       .  S
C703        H709   1.109       .  S
C706        H710   1.109       .  S
C706        H711   1.110       .  S
C706        H712   1.111       .  S
C713        C718   1.405       .  A
C713       C1458   1.406   1_545  A
C713        H720   1.084       .  S
C714        C715   1.414       .  A
C714       C1457   1.406       .  A
C715        C716   1.403       .  A
C715        C722   1.509       .  S
C716        C717   1.412       .  A
C716        H721   1.082       .  S
C717       C1462   1.421       .  A
C717        C749   1.505       .  S
C718       C1461   1.422   1_545  A
C718        C719   1.508       .  S
C719        H723   1.110       .  S
C719        H724   1.109       .  S
C719        H725   1.108       .  S
C722        H726   1.107       .  S
C722        H727   1.110       .  S
C722        H728   1.111       .  S
C729        C730   1.404       .  A
C729        C734   1.408       .  A
C729        H736   1.084       .  S
C730        C731   1.410       .  A
C731        C732   1.397       .  A
C731        C738   1.508       .  S
C732        C733   1.403       .  A
C732        H737   1.085       .  S
C733        C734   1.412       .  A
C734        C735   1.505       .  S
C735        H739   1.111       .  S
C735        H740   1.111       .  S
C735        H741   1.110       .  S
C738        H742   1.110       .  S
C738        H743   1.110       .  S
C738        H744   1.111       .  S
C745        C750   1.390       .  A
C745       C1474   1.476       .  S
C746        C747   1.414       .  A
C746        H751   1.078       .  S
C747        C748   1.421       .  A
C747        C954   1.519       .  S
C748        C749   1.414       .  A
C748        H752   1.073       .  S
C750        H753   1.083       .  S
O754       Cu762   1.977       .  S
O754        C764   1.274       .  A
O755       Cu762   1.976       .  S
O755        C765   1.273       .  A
O756       Cu762   2.028       .  S
O756        C766   1.281       .  A
O757       Cu762   2.027       .  S
O757        C767   1.281       .  A
O758       Cu763   1.978       .  S
O758        C767   1.272       .  A
O759       Cu763   1.972       .  S
O759        C766   1.274       .  A
O760       Cu763   2.033       .  S
O760        C765   1.281       .  A
O761       Cu763   2.034       .  S
O761        C764   1.281       .  A
Cu762      Cu763   2.369       .  S
C764       C1429   1.484       .  S
C765       C1477   1.475       .  S
C766       C1410   1.484       .  S
C767       C1445   1.481       .  S
C768        C769   1.386       .  A
C768        C773   1.394       .  A
C768       C1442   1.475       .  S
C769        C770   1.399       .  A
C769        H774   1.085       .  S
C770        C771   1.418       .  A
C770       C1394   1.491       .  S
C771        C772   1.422       .  A
C771        H775   1.079       .  S
C772        C773   1.417       .  A
C772        C947   1.517       .  S
C773        H776   1.078       .  S
C777        C778   1.402       .  A
C777        C782   1.391       .  A
C777       C1426   1.478       .  S
C778        C779   1.417       .  A
C778        H783   1.078       .  S
C779        C780   1.420       .  A
C779        C922   1.513       .  S
C780        C781   1.409       .  A
C780        H784   1.081       .  S
C781        C782   1.395       .  A
C781       C1381   1.482       .  S
C782        H785   1.084       .  S
C786        C787   1.390       .  A
C786       C1413   1.474       .  S
C787        H792   1.084       .  S
C788        C789   1.411       .  A
C789        C790   1.421       .  A
C789        H793   1.081       .  S
C790        C791   1.412       .  A
C790        C913   1.509       .  S
C791        H794   1.079       .  S
C795        C800   1.409   1_554  A
C795       C1365   1.491       .  S
C796        C797   1.404   1_554  A
C796       C1330   1.502       .  S
C797        H802   1.082       .  S
C798        C799   1.418       .  A
C798       C1346   1.484       .  S
C799        C800   1.403       .  A
C799       C1314   1.495       .  S
C800        H801   1.083       .  S
C803        C804   1.398       .  A
C803        C808   1.386       .  A
C803       C1301   1.476       .  S
C804        C805   1.419       .  A
C804        H809   1.078       .  S
C805        C806   1.418       .  A
C805        C886   1.512       .  S
C806        C807   1.410       .  A
C806        H810   1.080       .  S
C807        C808   1.396       .  A
C807       C1349   1.482       .  S
C808        H811   1.084       .  S
C812        C813   1.400       .  A
C812        C817   1.408       .  A
C812       C1285   1.502       .  S
C813        C814   1.408       .  A
C813        H818   1.080       .  S
C814        C815   1.412       .  A
C814       C1266   1.501       .  S
C815        C816   1.411       .  A
C815        H819   1.081       .  S
C816        C817   1.415       .  A
C816        C879   1.508       .  S
C817        H820   1.081       .  S
O821       Cu829   2.065       .  S
O821        C831   1.286       .  A
O822       Cu829   2.066       .  S
O822        C832   1.287       .  A
O823       Cu829   1.982       .  S
O823        C833   1.272       .  A
O824       Cu829   1.975       .  S
O824        C834   1.271       .  A
O825       Cu830   2.035       .  S
O825        C834   1.281       .  A
O826       Cu830   2.037       .  S
O826        C833   1.282       .  A
O827       Cu830   1.965       .  S
O827        C832   1.269       .  A
O828       Cu830   1.968       .  S
O828        C831   1.270       .  A
Cu829      Cu830   2.365       .  S
C831       C1250   1.495       .  S
C832       C1282   1.502       .  S
C833       C1234   1.476       .  S
C834       C1298   1.472       .  S
C835        C836   1.406       .  A
C835        C840   1.398       .  A
C835       C1253   1.499       .  S
C836        C837   1.415       .  A
C836        H841   1.081       .  S
C837        C838   1.416       .  A
C837        C895   1.510       .  S
C838        C839   1.415       .  A
C838        H842   1.080       .  S
C839        C840   1.404       .  A
C839       C1221   1.503       .  S
C840        H843   1.083       .  S
C844        C845   1.403       .  A
C844        C849   1.392       .  A
C844       C1237   1.480       .  S
C845        C846   1.416       .  A
C845        H850   1.080       .  S
C846        C847   1.416       .  A
C846        C906   1.508       .  S
C847        C848   1.411       .  A
C847        H851   1.082       .  S
C848        C849   1.396       .  A
C848       C1202   1.492       .  S
C849        H852   1.079       .  S
C853       C2342   1.425       .  A
C853        C858   1.404   1_554  A
C853       C1170   1.495       .  S
C854       C2341   1.425       .  A
C854        C855   1.405   1_554  A
C854       C1378   1.500       .  S
C855       C2344   1.405       .  A
C855        H860   1.074       .  S
C856       C2343   1.405       .  A
C856        C857   1.426       .  A
C856       C1189   1.500       .  S
C857        C858   1.403       .  A
C857       C1269   1.496       .  S
C858        H859   1.084       .  S
O861       Cu869   1.994       .  S
O861        C871   1.274       .  A
O862       Cu869   1.977       .  S
O862        C872   1.273       .  A
O863       Cu869   2.041       .  S
O863        C873   1.281       .  A
O864       Cu869   2.041       .  S
O864        C874   1.283       .  A
O865       Cu870   1.987       .  S
O865        C874   1.273       .  A
O866       Cu870   1.983       .  S
O866        C873   1.273       .  A
O867       Cu870   2.028       .  S
O867        C872   1.281       .  A
O868       Cu870   2.039       .  S
O868        C871   1.283       .  A
Cu869      Cu870   2.371       .  S
C871       C1154   1.490       .  S
C872       C1125   1.473       .  S
C873       C1106   1.475       .  S
C874       C1138   1.483       .  S
C875        C876   1.395       .  A
C875        C880   1.395       .  A
C875       C1141   1.480       .  S
C876        C877   1.406       .  A
C876        H881   1.077       .  S
C877        C878   1.421       .  A
C877       C1317   1.514       .  S
C878        C879   1.421       .  A
C878        H882   1.082       .  S
C879        C880   1.410       .  A
C880        H883   1.081       .  S
C884        C885   1.396       .  A
C884        C889   1.390       .  A
C884       C2610   1.472       .  S
C885        C886   1.414       .  A
C885        H890   1.078       .  S
C886        C887   1.421       .  A
C887        C888   1.412       .  A
C887        H891   1.080       .  S
C888        C889   1.398       .  A
C888       C1186   1.487       .  S
C889        H892   1.084       .  S
C893        C894   1.398       .  A
C893        C898   1.393       .  A
C893       C1157   1.482       .  S
C894        C895   1.416       .  A
C894        H899   1.081       .  S
C895        C896   1.421       .  A
C896        C897   1.417       .  A
C896        H900   1.082       .  S
C897        C898   1.402       .  A
C897       C1090   1.499       .  S
C898        H901   1.081       .  S
C902        C903   1.396       .  A
C902        C907   1.403       .  A
C902       C2597   1.483       .  S
C903        C904   1.402       .  A
C903        H908   1.084       .  S
C904        C905   1.409       .  A
C904       C1077   1.499       .  S
C905        C906   1.417       .  A
C905        H909   1.079       .  S
C906        C907   1.415       .  A
C907        H910   1.079       .  S
C911       C2400   1.401   1_455  A
C911        C916   1.392       .  A
C911       C1058   1.483       .  S
C912       C2399   1.401       .  A
C912        C913   1.419       .  A
C912        H917   1.079       .  S
C913        C914   1.415       .  A
C914        C915   1.411       .  A
C914        H918   1.080       .  S
C915       C2404   1.403       .  A
C915       C1173   1.497       .  S
C916       C2403   1.403   1_455  A
C916        H919   1.082       .  S
C920        C921   1.400       .  A
C920        C925   1.396       .  A
C920       C1045   1.484       .  S
C921        C922   1.414       .  A
C921        H926   1.079       .  S
C922        C923   1.416       .  A
C923        C924   1.413       .  A
C923        H927   1.076       .  S
C924        C925   1.410       .  A
C924       C1333   1.506       .  S
C925        H928   1.083       .  S
O929       Cu937   2.039       .  S
O929        C939   1.281       .  A
O930       Cu937   2.039       .  S
O930        C940   1.281       .  A
O931       Cu937   1.991       .  S
O931        C941   1.274       .  A
O932       Cu937   1.985       .  S
O932        C942   1.275       .  A
O933       Cu938   2.036       .  S
O933        C942   1.281       .  A
O934       Cu938   2.040       .  S
O934        C941   1.282       .  A
O935       Cu938   1.995       .  S
O935        C940   1.277       .  A
O936       Cu938   1.996       .  S
O936        C939   1.276       .  A
Cu937      Cu938   2.365       .  S
C939       C1061   1.480       .  S
C940       C1029   1.495       .  S
C941       C1042   1.492       .  S
C942       C1010   1.497       .  S
C943        C944   1.391       .  A
C943       C2436   1.398   1_455  A
C943       C1013   1.484       .  S
C944       C2433   1.398   1_455  A
C944        H949   1.084       .  S
C945       C2432   1.398       .  A
C945        C946   1.416       .  A
C945        C994   1.491       .  S
C946        C947   1.422       .  A
C946        H950   1.080       .  S
C947        C948   1.417       .  A
C948       C2431   1.398       .  A
C948        H951   1.078       .  S
C952        C953   1.402       .  A
C952        C957   1.397       .  A
C952       C1026   1.486       .  S
C953        C954   1.417       .  A
C953        H958   1.077       .  S
C954        C955   1.416       .  A
C955        C956   1.409       .  A
C955        H959   1.073       .  S
C956        C957   1.406       .  A
C956        C978   1.499       .  S
C957        H960   1.083       .  S
C961       C1706   1.425   1_565  A
C961        C966   1.405       .  A
C961       C1458   1.498       .  S
C962       C1705   1.425   1_455  A
C962        C963   1.406       .  A
C962        C997   1.496       .  S
C963        H968   1.083       .  S
C964        C965   1.421       .  A
C964       C1218   1.490       .  S
C965       C2454   1.404   1_455  A
C965       C1074   1.501       .  S
C966       C2453   1.404       .  A
C966        H967   1.078       .  S
C969        C970   1.426       .  A
C969        C974   1.404       .  A
C969        C981   1.502       .  S
C970        C971   1.407       .  A
C970       C1397   1.488       .  S
C971        C972   1.403       .  A
C971        H976   1.084       .  S
C972        C973   1.416       .  A
C972       C1093   1.494       .  S
C973        C974   1.401       .  A
C973       C1205   1.481       .  S
C974        H975   1.082       .  S
C977        C978   1.408       .  A
C977        C982   1.407       .  A
C977        H984   1.084       .  S
C978        C979   1.420       .  A
C979        C980   1.403       .  A
C979        C986   1.509       .  S
C980        C981   1.404       .  A
C980        H985   1.082       .  S
C981        C982   1.417       .  A
C982        C983   1.510       .  S
C983        H987   1.111       .  S
C983        H988   1.109       .  S
C983        H989   1.108       .  S
C986        H990   1.110       .  S
C986        H991   1.104       .  S
C986        H992   1.111       .  S
C993       C2482   1.406       .  A
C993        C998   1.412       .  A
C993       H1000   1.084       .  S
C994       C2481   1.406       .  A
C994        C995   1.419       .  A
C995        C996   1.398       .  A
C995       C1002   1.512       .  S
C996       C2485   1.401       .  A
C997       C2484   1.401       .  A
C997        C998   1.417       .  A
C998        C999   1.506       .  S
C999       H1003   1.111       .  S
C999       H1004   1.108       .  S
C999       H1005   1.110   1_455  S
C1002      H1006   1.106       .  S
C1002      H1007   1.111       .  S
C1002      H1008   1.111       .  S
C1009      C1010   1.411       .  A
C1009      C1014   1.401       .  A
C1009      H1016   1.083       .  S
C1010      C1011   1.421       .  A
C1011      C1012   1.408       .  A
C1011      C1018   1.507       .  S
C1012      C1013   1.404       .  A
C1012      H1017   1.084       .  S
C1013      C1014   1.410       .  A
C1014      C1015   1.509       .  S
C1015      H1019   1.111       .  S
C1015      H1020   1.110       .  S
C1015      H1021   1.108       .  S
C1018      H1022   1.110       .  S
C1018      H1023   1.110       .  S
C1018      H1024   1.111       .  S
C1025      C1026   1.404       .  A
C1025      C1030   1.413       .  A
C1025      H1032   1.084       .  S
C1026      C1027   1.411       .  A
C1027      C1028   1.401       .  A
C1027      C1034   1.509       .  S
C1028      C1029   1.408       .  A
C1028      H1033   1.084       .  S
C1029      C1030   1.420       .  A
C1030      C1031   1.506       .  S
C1031      H1035   1.111       .  S
C1031      H1036   1.110       .  S
C1031      H1037   1.110       .  S
C1034      H1038   1.111       .  S
C1034      H1039   1.109       .  S
C1034      H1040   1.111       .  S
C1041      C1042   1.409       .  A
C1041      C1046   1.411       .  A
C1041      H1048   1.084       .  S
C1042      C1043   1.422       .  A
C1043      C1044   1.402       .  A
C1043      C1050   1.510       .  S
C1044      C1045   1.399       .  A
C1044      H1049   1.085       .  S
C1045      C1046   1.411       .  A
C1046      C1047   1.505       .  S
C1047      H1051   1.111       .  S
C1047      H1052   1.110       .  S
C1047      H1053   1.109       .  S
C1050      H1054   1.109       .  S
C1050      H1055   1.111       .  S
C1050      H1056   1.111       .  S
C1057      C1058   1.401       .  A
C1057      C1062   1.399       .  A
C1057      H1064   1.085       .  S
C1058      C1059   1.411       .  A
C1059      C1060   1.412       .  A
C1059      C2554   1.505   1_455  S
C1060      C1061   1.407       .  A
C1060      H1065   1.084       .  S
C1061      C1062   1.416       .  A
C1062      C1063   1.510       .  S
C1063      H1067   1.110       .  S
C1063      H1068   1.106       .  S
C1063      H1069   1.111       .  S
C1066      C2547   1.505       .  S
C1066      H1070   1.110       .  S
C1066      H1071   1.111       .  S
C1066      H1072   1.111       .  S
C1073      C1074   1.408       .  A
C1073      C1078   1.406       .  A
C1073      H1080   1.084       .  S
C1074      C1075   1.415       .  A
C1075      C1076   1.405       .  A
C1075      C2570   1.509   1_455  S
C1076      C1077   1.410       .  A
C1076      H2569   1.084   1_455  S
C1077      C1078   1.416       .  A
C1078      C1079   1.507       .  S
C1079      H1083   1.111       .  S
C1079      H1084   1.107       .  S
C1079      H1085   1.108       .  S
H1081      C2564   1.084       .  S
C1082      C2563   1.509       .  S
C1082      H1086   1.108       .  S
C1082      H1087   1.109       .  S
C1082      H1088   1.111       .  S
C1089      C1090   1.409       .  A
C1089      C1094   1.411       .  A
C1089      H1096   1.084       .  S
C1090      C1091   1.423       .  A
C1091      C1092   1.400       .  A
C1091      C1098   1.511       .  S
C1092      C1093   1.398       .  A
C1092      H1097   1.083       .  S
C1093      C1094   1.415       .  A
C1094      C1095   1.505       .  S
C1095      H1099   1.110       .  S
C1095      H1100   1.108       .  S
C1095      H1101   1.110       .  S
C1098      H1102   1.110       .  S
C1098      H1103   1.104       .  S
C1098      H1104   1.109       .  S
C1105      C1106   1.407       .  A
C1105      C2598   1.413       .  A
C1105      H1112   1.084       .  S
C1106      C1107   1.411       .  A
C1107      C1108   1.396       .  A
C1107      C1114   1.509       .  S
C1108      C1109   1.402       .  A
C1108      H1113   1.085       .  S
C1109      C2598   1.413       .  A
C1109      C2390   1.483       .  S
C1110      C2593   1.413       .  A
C1110      C2597   1.413       .  A
C1110      C1111   1.505       .  S
C1111      H1115   1.111       .  S
C1111      H1116   1.110       .  S
C1111      H1117   1.109       .  S
C1114      H1118   1.107       .  S
C1114      H1119   1.109       .  S
C1114      H1120   1.111       .  S
C1121      C1122   1.397       .  A
C1121      C1126   1.398       .  A
C1121      H2616   1.085       .  S
C1122      C1123   1.411       .  A
C1122      C2372   1.472       .  S
C1123      C1124   1.406       .  A
C1123      C1130   1.505       .  S
C1124      C1125   1.404       .  A
C1124      H1129   1.084       .  S
C1125      C1126   1.418       .  A
C1126      C1127   1.510       .  S
C1127      H1131   1.111       .  S
C1127      H1132   1.109       .  S
C1127      H1133   1.109       .  S
H1128      C2609   1.085       .  S
C1130      H1134   1.109       .  S
C1130      H1135   1.110       .  S
C1130      H1136   1.111       .  S
C1137      C1138   1.402       .  A
C1137      C1142   1.406       .  A
C1137      H1144   1.084       .  S
C1138      C1139   1.422       .  A
C1139      C1140   1.406       .  A
C1139      C1146   1.509       .  S
C1140      C1141   1.398       .  A
C1140      H1145   1.084       .  S
C1141      C1142   1.414       .  A
C1142      C1143   1.507       .  S
C1143      H1147   1.111       .  S
C1143      H1148   1.109       .  S
C1143      H1149   1.110       .  S
C1146      H1150   1.109       .  S
C1146      H1151   1.109       .  S
C1146      H1152   1.111       .  S
C1153      C1154   1.403       .  A
C1153      C1158   1.404       .  A
C1153      H1160   1.084       .  S
C1154      C1155   1.423       .  A
C1155      C1156   1.407       .  A
C1155      C1162   1.509       .  S
C1156      C1157   1.399       .  A
C1156      H1161   1.084       .  S
C1157      C1158   1.416       .  A
C1158      C1159   1.508       .  S
C1159      H1163   1.111       .  S
C1159      H1164   1.110       .  S
C1159      H1165   1.107       .  S
C1162      H1166   1.108       .  S
C1162      H1167   1.109       .  S
C1162      H1168   1.111       .  S
C1169      C1170   1.402       .  A
C1169      C1174   1.401       .  A
C1169      H1176   1.084       .  S
C1170      C2659   1.415   1_455  A
C1171      C2658   1.415       .  A
C1171      C1172   1.404       .  A
C1171      C1178   1.505   1_554  S
C1172      C1173   1.407       .  A
C1172      H1177   1.083       .  S
C1173      C2662   1.422       .  A
C1174      C2661   1.422       .  A
C1174      C1175   1.508       .  S
C1175      H1179   1.111       .  S
C1175      H1180   1.109       .  S
C1175      H1181   1.110       .  S
C1178      H1182   1.110       .  S
C1178      H1183   1.097       .  S
C1178      H1184   1.111       .  S
C1185      C1186   1.404       .  A
C1185      C1190   1.411       .  A
C1185      H2680   1.084       .  S
C1186      C1187   1.414       .  A
C1187      C1188   1.395       .  A
C1187      C1194   1.507       .  S
C1188      C1189   1.402       .  A
C1188      H1193   1.083       .  S
C1189      C1190   1.422       .  A
C1190      C2679   1.509       .  S
C1191      C2678   1.509       .  S
C1191      H1195   1.111       .  S
C1191      H1196   1.108       .  S
C1191      H1197   1.108       .  S
H1192      C2673   1.084       .  S
C1194      H1198   1.110       .  S
C1194      H1199   1.107       .  S
C1194      H1200   1.111       .  S
C1201      C1202   1.407       .  A
C1201      C1206   1.403       .  A
C1201      H1208   1.084       .  S
C1202      C1203   1.424       .  A
C1203      C1204   1.402       .  A
C1203      C1210   1.512       .  S
C1204      C1205   1.398       .  A
C1204      H1209   1.084       .  S
C1205      C1206   1.408       .  A
C1206      C1207   1.506       .  S
C1207      H1211   1.111       .  S
C1207      H1212   1.110       .  S
C1207      H1213   1.108       .  S
C1210      H1214   1.105       .  S
C1210      H1215   1.110       .  S
C1210      H1216   1.110       .  S
C1217      C1218   1.405       .  A
C1217      C1222   1.412       .  A
C1217      H1224   1.084       .  S
C1218      C1219   1.410       .  A
C1219      C1220   1.395       .  A
C1219      C1226   1.507       .  S
C1220      C1221   1.410       .  A
C1220      H1225   1.083       .  S
C1221      C1222   1.422       .  A
C1222      C1223   1.505       .  S
C1223      H1228   1.110       .  S
C1226      H1230   1.110       .  S
C1226      H1231   1.108   1_565  S
C1226      H1232   1.110   1_565  S
C1233      C1234   1.401       .  A
C1233      C1238   1.404       .  A
C1233      H1240   1.084       .  S
C1234      C1235   1.416       .  A
C1235      C1236   1.405       .  A
C1235      C1242   1.508       .  S
C1236      C1237   1.402       .  A
C1236      H1241   1.084       .  S
C1237      C1238   1.414       .  A
C1238      C1239   1.507       .  S
C1239      H1243   1.111       .  S
C1239      H1244   1.110       .  S
C1239      H1245   1.111       .  S
C1242      H1246   1.109       .  S
C1242      H1247   1.111       .  S
C1242      H1248   1.111       .  S
C1249      C1250   1.404       .  A
C1249      H1256   1.084       .  S
C1250      C1251   1.425       .  A
C1251      C1252   1.402       .  A
C1251      C1258   1.511       .  S
C1252      H1257   1.083       .  S
C1253      C1254   1.422       .  A
C1254      C1255   1.508       .  S
C1255      H1259   1.111       .  S
C1255      H1260   1.109       .  S
C1255      H1261   1.110       .  S
C1258      H1262   1.111       .  S
C1258      H1263   1.109       .  S
C1258      H1264   1.111       .  S
C1265      C1266   1.408       .  A
C1265      C1270   1.404       .  A
C1265      H1272   1.082       .  S
C1266      C1267   1.422       .  A
C1267      C1268   1.403       .  A
C1267      C1274   1.508       .  S
C1268      C1269   1.403       .  A
C1268      H1273   1.084       .  S
C1269      C1270   1.413       .  A
C1270      C1271   1.505       .  S
C1271      H1275   1.111       .  S
C1271      H1276   1.110       .  S
C1271      H1277   1.099       .  S
C1274      H1278   1.108       .  S
C1274      H1279   1.111       .  S
C1274      H1280   1.111       .  S
C1281      C1282   1.406       .  A
C1281      C1286   1.410       .  A
C1281      H1288   1.084       .  S
C1282      C1283   1.428       .  A
C1283      C1284   1.402       .  A
C1283      C1290   1.512       .  S
C1284      C1285   1.401       .  A
C1284      H1289   1.084       .  S
C1285      C1286   1.420       .  A
C1286      C1287   1.502       .  S
C1287      H1291   1.110       .  S
C1287      H1292   1.105       .  S
C1287      H1293   1.110       .  S
C1290      H1294   1.111       .  S
C1290      H1295   1.110       .  S
C1290      H1296   1.111       .  S
C1297      C1298   1.400       .  A
C1297      H1304   1.084       .  S
C1298      C1299   1.416       .  A
C1299      C1300   1.403       .  A
C1299      C1306   1.509       .  S
C1300      H1305   1.084       .  S
C1301      C1302   1.415       .  A
C1302      C1303   1.508       .  S
C1303      H1307   1.111       .  S
C1303      H1308   1.110       .  S
C1303      H1309   1.111       .  S
C1306      H1310   1.109       .  S
C1306      H1311   1.111       .  S
C1306      H1312   1.111       .  S
C1313      C1314   1.396       .  A
C1313      C1318   1.403       .  A
C1313      H1320   1.084       .  S
C1314      C1315   1.410       .  A
C1315      C1316   1.413       .  A
C1315      C1322   1.504       .  S
C1316      C1317   1.414       .  A
C1316      H1321   1.083       .  S
C1317      C1318   1.430       .  A
C1318      C1319   1.511       .  S
C1319      H1323   1.110       .  S
C1319      H1324   1.109       .  S
C1319      H1325   1.107       .  S
C1322      H1326   1.106       .  S
C1322      H1327   1.110       .  S
C1322      H1328   1.111       .  S
C1329      C1330   1.405       .  A
C1329      C1334   1.407       .  A
C1329      H1336   1.083       .  S
C1330      C1331   1.414       .  A
C1331      C1332   1.406       .  A
C1331      C1338   1.508       .  S
C1332      C1333   1.411       .  A
C1332      H1337   1.083       .  S
C1333      C1334   1.423       .  A
C1334      C1335   1.510       .  S
C1335      H1339   1.111       .  S
C1335      H1340   1.110       .  S
C1335      H1341   1.107       .  S
C1338      H1342   1.110       .  S
C1338      H1343   1.108       .  S
C1338      H1344   1.111       .  S
C1345      C1346   1.399       .  A
C1345      C1350   1.399       .  A
C1345      H1352   1.082       .  S
C1346      C1347   1.412       .  A
C1347      C1348   1.406       .  A
C1347      C1354   1.506       .  S
C1348      C1349   1.404       .  A
C1348      H1353   1.084       .  S
C1349      C1350   1.418       .  A
C1350      C1351   1.512       .  S
C1351      H1355   1.108       .  S
C1351      H1356   1.105       .  S
C1351      H1357   1.111       .  S
C1354      H1358   1.109       .  S
C1354      H1359   1.107       .  S
C1354      H1360   1.111       .  S
C1361      C1362   1.403       .  A
C1361      C1366   1.407       .  A
C1361      H1368   1.084       .  S
C1362      C1363   1.415       .  A
C1363      C1364   1.401       .  A
C1363      C1370   1.509   1_565  S
C1364      C1365   1.403       .  A
C1364      H1369   1.084       .  S
C1365      C1366   1.416       .  A
C1366      C1367   1.507   1_554  S
C1367      H1371   1.111       .  S
C1367      H1373   1.108       .  S
C1370      H1375   1.107   1_545  S
C1370      H1376   1.111       .  S
C1377      C1378   1.406       .  A
C1377      C1382   1.399       .  A
C1377      H1384   1.084       .  S
C1378      C1379   1.422       .  A
C1379      C1380   1.408       .  A
C1379      C1386   1.510   1_554  S
C1380      C1381   1.402       .  A
C1380      H1385   1.084       .  S
C1381      C1382   1.412       .  A
C1382      C1383   1.510       .  S
C1383      H1387   1.111       .  S
C1383      H1388   1.110       .  S
C1383      H1389   1.108       .  S
C1386      H1390   1.108       .  S
C1386      H1391   1.108       .  S
C1386      H1392   1.111       .  S
C1393      C1394   1.408       .  A
C1393      C1398   1.400       .  A
C1393      H1400   1.084       .  S
C1394      C1395   1.417       .  A
C1395      C1396   1.408       .  A
C1395      C1402   1.506       .  S
C1396      C1397   1.405       .  A
C1396      H1401   1.084       .  S
C1397      C1398   1.409       .  A
C1398      C1399   1.506       .  S
C1399      H1403   1.111       .  S
C1399      H1404   1.110       .  S
C1399      H1405   1.102       .  S
C1402      H1406   1.110       .  S
C1402      H1407   1.108       .  S
C1402      H1408   1.111       .  S
C1409      C1410   1.409       .  A
C1409      C1414   1.398       .  A
C1409      H1416   1.084       .  S
C1410      C1411   1.416       .  A
C1411      C1412   1.405       .  A
C1411      C1418   1.507       .  S
C1412      C1413   1.404       .  A
C1412      H1417   1.084       .  S
C1413      C1414   1.407       .  A
C1414      C1415   1.509       .  S
C1415      H1419   1.111       .  S
C1415      H1420   1.108       .  S
C1415      H1421   1.110       .  S
C1418      H1422   1.110       .  S
C1418      H1423   1.110       .  S
C1418      H1424   1.111       .  S
C1425      C1426   1.405       .  A
C1425      C1430   1.406       .  A
C1425      H1432   1.084       .  S
C1426      C1427   1.408       .  A
C1427      C1428   1.400       .  A
C1427      C1434   1.508       .  S
C1428      C1429   1.409       .  A
C1428      H1433   1.084       .  S
C1429      C1430   1.415       .  A
C1430      C1431   1.506       .  S
C1431      H1435   1.111       .  S
C1431      H1436   1.110       .  S
C1431      H1437   1.110       .  S
C1434      H1438   1.109       .  S
C1434      H1439   1.111       .  S
C1434      H1440   1.111       .  S
C1441      C1442   1.396       .  A
C1441      C1446   1.401       .  A
C1441      H1448   1.084       .  S
C1442      C1443   1.413       .  A
C1443      C1444   1.403       .  A
C1443      C1450   1.508       .  S
C1444      C1445   1.404       .  A
C1444      H1449   1.084       .  S
C1445      C1446   1.422       .  A
C1446      C1447   1.510       .  S
C1447      H1451   1.111       .  S
C1447      H1452   1.111       .  S
C1447      H1453   1.109       .  S
C1450      H1454   1.109       .  S
C1450      H1455   1.110       .  S
C1450      H1456   1.111       .  S
C1457      C1462   1.405       .  A
C1457      H1464   1.084       .  S
C1458      C1459   1.413       .  A
C1459      C1460   1.403       .  A
C1459      C1466   1.509       .  S
C1460      C1461   1.413       .  A
C1460      H1465   1.082       .  S
C1462      C1463   1.508       .  S
C1463      H1467   1.109       .  S
C1463      H1468   1.109       .  S
C1463      H1469   1.107       .  S
C1466      H1470   1.107       .  S
C1466      H1471   1.111       .  S
C1466      H1472   1.111       .  S
C1473      C1474   1.404       .  A
C1473      C1478   1.409       .  A
C1473      H1480   1.084       .  S
C1474      C1475   1.410       .  A
C1475      C1476   1.397       .  A
C1475      C1482   1.508       .  S
C1476      C1477   1.403       .  A
C1476      H1481   1.085       .  S
C1477      C1478   1.413       .  A
C1478      C1479   1.505       .  S
C1479      H1483   1.111       .  S
C1479      H1484   1.111       .  S
C1479      H1485   1.110       .  S
C1482      H1486   1.110       .  S
C1482      H1487   1.110       .  S
C1482      H1488   1.111       .  S
C1489      C2234   1.398       .  A
C1489      C1494   1.391       .  A
C1489      C2218   1.475       .  S
C1490      C2233   1.398   1_545  A
C1490      C1491   1.414       .  A
C1490      H1495   1.078       .  S
C1491      C1492   1.422       .  A
C1491      C1698   1.521       .  S
C1492      C1493   1.415       .  A
C1492      H1496   1.073       .  S
C1493      C2238   1.405   1_545  A
C1493      C2949   1.506   1_545  S
C1494      C2237   1.404       .  A
C1494      H1497   1.083       .  S
O1498     Cu1506   1.977       .  S
O1498      C1508   1.274       .  A
O1499     Cu1506   1.975       .  S
O1499      C1509   1.273       .  A
O1500     Cu1506   2.029       .  S
O1500      C1510   1.281       .  A
O1501     Cu1506   2.028       .  S
O1501      C1511   1.282       .  A
O1502     Cu1507   1.978       .  S
O1502      C1511   1.272       .  A
O1503     Cu1507   1.972       .  S
O1503      C1510   1.274       .  A
O1504     Cu1507   2.032       .  S
O1504      C1509   1.281       .  A
O1505     Cu1507   2.033       .  S
O1505      C1508   1.281       .  A
Cu1506    Cu1507   2.370       .  S
C1508      C2173   1.484       .  S
C1509      C2221   1.473       .  S
C1510      C2154   1.483       .  S
C1511      C2189   1.482       .  S
C1512      C1513   1.386       .  A
C1512      C1517   1.394       .  A
C1512      C2186   1.475       .  S
C1513      C1514   1.399       .  A
C1513      H1518   1.085       .  S
C1514      C1515   1.419       .  A
C1514      C2138   1.491       .  S
C1515      C1516   1.422       .  A
C1515      H1519   1.079       .  S
C1516      C1517   1.417       .  A
C1516      C1691   1.518       .  S
C1517      H1520   1.078       .  S
C1521      C1522   1.402       .  A
C1521      C1526   1.391       .  A
C1521      C2170   1.478       .  S
C1522      C1523   1.417       .  A
C1522      H1527   1.078       .  S
C1523      C1524   1.419       .  A
C1523      C1666   1.512       .  S
C1524      C1525   1.409       .  A
C1524      H1528   1.081       .  S
C1525      C1526   1.395       .  A
C1525      C2125   1.481       .  S
C1526      H1529   1.084       .  S
C1530      C1531   1.390       .  A
C1530      C2279   1.399       .  A
C1530      C2157   1.474       .  S
C1531      C2276   1.395       .  A
C1531      H1536   1.084       .  S
C1532      C2275   1.395   1_545  A
C1532      C1533   1.411       .  A
C1532      C2850   1.484   1_545  S
C1533      C1534   1.420       .  A
C1533      H1537   1.081       .  S
C1534      C1535   1.412       .  A
C1534      C1657   1.509       .  S
C1535      C2274   1.399   1_545  A
C1535      H1538   1.079       .  S
C1539      C2284   1.423       .  A
C1539      C1544   1.409   1_554  A
C1539      C2109   1.491       .  S
C1540      C2283   1.424   1_545  A
C1540      C1541   1.404   1_554  A
C1540      C2074   1.502       .  S
C1541      C2286   1.404   1_545  A
C1541      H1546   1.082       .  S
C1542      C2285   1.404       .  A
C1542      C1543   1.418       .  A
C1542      C2090   1.484       .  S
C1543      C1544   1.403       .  A
C1543      C2058   1.495       .  S
C1544      H1545   1.083       .  S
C1547      C1548   1.397       .  A
C1547      C1552   1.386       .  A
C1547      C2045   1.475       .  S
C1548      C1549   1.419       .  A
C1548      H1553   1.078       .  S
C1549      C1550   1.419       .  A
C1549      C1630   1.511       .  S
C1550      C1551   1.410       .  A
C1550      H1554   1.080       .  S
C1551      C1552   1.395       .  A
C1551      C2093   1.481       .  S
C1552      H1555   1.084       .  S
C1556      C1557   1.400       .  A
C1556      C1561   1.408       .  A
C1556      C2029   1.502       .  S
C1557      C1558   1.408       .  A
C1557      H1562   1.080       .  S
C1558      C1559   1.412       .  A
C1558      C2010   1.501       .  S
C1559      C1560   1.411       .  A
C1559      H1563   1.081       .  S
C1560      C1561   1.416       .  A
C1560      C1623   1.509       .  S
C1561      H1564   1.081       .  S
O1565     Cu1573   2.066       .  S
O1565      C1575   1.286       .  A
O1566     Cu1573   2.068       .  S
O1566      C1576   1.287       .  A
O1567     Cu1573   1.983       .  S
O1567      C1577   1.272       .  A
O1568     Cu1573   1.976       .  S
O1568      C1578   1.271       .  A
O1569     Cu1574   2.037       .  S
O1569      C1578   1.282       .  A
O1570     Cu1574   2.039       .  S
O1570      C1577   1.282       .  A
O1571     Cu1574   1.965       .  S
O1571      C1576   1.269       .  A
O1572     Cu1574   1.968       .  S
O1572      C1575   1.270       .  A
Cu1573    Cu1574   2.364       .  S
C1575      C1994   1.496       .  S
C1576      C2026   1.503       .  S
C1577      C1978   1.477       .  S
C1578      C2042   1.473       .  S
C1579      C1580   1.406       .  A
C1579      C1584   1.397       .  A
C1579      C1997   1.498       .  S
C1580      C1581   1.416       .  A
C1580      H1585   1.081       .  S
C1581      C1582   1.416       .  A
C1581      C1639   1.510       .  S
C1582      C1583   1.415       .  A
C1582      H1586   1.080       .  S
C1583      C1584   1.403       .  A
C1583      C1965   1.502       .  S
C1584      H1587   1.083       .  S
C1588      C1589   1.404       .  A
C1588      C1593   1.393       .  A
C1588      C1981   1.481       .  S
C1589      C1590   1.416       .  A
C1589      H1594   1.080       .  S
C1590      C1591   1.415       .  A
C1590      C1650   1.508       .  S
C1591      C1592   1.410       .  A
C1591      H1595   1.082       .  S
C1592      C1593   1.397       .  A
C1592      C1946   1.492       .  S
C1593      H1596   1.079       .  S
C1597      C1602   1.403   1_554  A
C1597      C1914   1.494       .  S
C1598      C1599   1.405   1_554  A
C1598      C2122   1.500   1_455  S
C1599      H1604   1.074   1_455  S
C1600      C1601   1.426       .  A
C1600      C1933   1.500       .  S
C1601      C1602   1.403       .  A
C1601      C2013   1.496       .  S
C1602      H1603   1.084       .  S
O1605     Cu1613   1.996       .  S
O1605      C1615   1.274       .  A
O1606     Cu1613   1.979       .  S
O1606      C1616   1.273       .  A
O1607     Cu1613   2.039       .  S
O1607      C1617   1.281       .  A
O1608     Cu1613   2.039       .  S
O1608      C1618   1.283       .  A
O1609     Cu1614   1.986       .  S
O1609      C1618   1.273       .  A
O1610     Cu1614   1.982       .  S
O1610      C1617   1.273       .  A
O1611     Cu1614   2.028       .  S
O1611      C1616   1.280       .  A
O1612     Cu1614   2.039       .  S
O1612      C1615   1.283       .  A
Cu1613    Cu1614   2.372       .  S
C1615      C1898   1.491       .  S
C1616      C1869   1.474       .  S
C1617      C1850   1.473       .  S
C1618      C1882   1.482       .  S
C1619      C1620   1.395       .  A
C1619      C1624   1.395       .  A
C1619      C1885   1.480       .  S
C1620      C1621   1.406       .  A
C1620      H1625   1.076       .  S
C1621      C1622   1.421       .  A
C1621      C2061   1.514       .  S
C1622      C1623   1.422       .  A
C1622      H1626   1.082       .  S
C1623      C1624   1.410       .  A
C1624      H1627   1.081       .  S
C1628      C1629   1.396       .  A
C1628      C1633   1.390       .  A
C1629      C1630   1.414       .  A
C1629      H1634   1.078       .  S
C1630      C1631   1.420       .  A
C1631      C1632   1.411       .  A
C1631      H1635   1.080       .  S
C1632      C1633   1.398       .  A
C1632      C1930   1.487       .  S
C1633      H1636   1.084       .  S
C1637      C1638   1.398       .  A
C1637      C1642   1.393       .  A
C1637      C1901   1.483       .  S
C1638      C1639   1.416       .  A
C1638      H1643   1.081       .  S
C1639      C1640   1.421       .  A
C1640      C1641   1.417       .  A
C1640      H1644   1.082       .  S
C1641      C1642   1.402       .  A
C1641      C1834   1.500       .  S
C1642      H1645   1.081       .  S
C1646      C1647   1.396       .  A
C1646      C1651   1.403       .  A
C1647      C1648   1.402       .  A
C1647      H1652   1.085       .  S
C1648      C1649   1.409       .  A
C1648      C1821   1.497       .  S
C1649      C1650   1.417       .  A
C1649      H1653   1.079       .  S
C1650      C1651   1.414       .  A
C1651      H1654   1.079       .  S
C1655      C1660   1.392       .  A
C1655      C1802   1.482       .  S
C1656      C1657   1.418       .  A
C1656      H1661   1.079       .  S
C1657      C1658   1.415       .  A
C1658      C1659   1.411       .  A
C1658      H1662   1.080       .  S
C1659      C1917   1.497   1_655  S
C1660      H1663   1.082       .  S
C1664      C1665   1.401       .  A
C1664      C1669   1.397       .  A
C1664      C1789   1.487       .  S
C1665      C1666   1.413       .  A
C1665      H1670   1.079       .  S
C1666      C1667   1.415       .  A
C1667      C1668   1.413       .  A
C1667      H1671   1.076       .  S
C1668      C1669   1.410       .  A
C1668      C2077   1.507       .  S
C1669      H1672   1.082       .  S
O1673     Cu1681   2.039       .  S
O1673      C1683   1.281       .  A
O1674     Cu1681   2.040       .  S
O1674      C1684   1.281       .  A
O1675     Cu1681   1.990       .  S
O1675      C1685   1.274       .  A
O1676     Cu1681   1.986       .  S
O1676      C1686   1.276       .  A
O1677     Cu1682   2.037       .  S
O1677      C1686   1.281       .  A
O1678     Cu1682   2.041       .  S
O1678      C1685   1.282       .  A
O1679     Cu1682   1.995       .  S
O1679      C1684   1.277       .  A
O1680     Cu1682   1.994       .  S
O1680      C1683   1.275       .  A
Cu1681    Cu1682   2.364       .  S
C1683      C1805   1.481       .  S
C1684      C1773   1.496       .  S
C1685      C1786   1.496       .  S
C1686      C1754   1.498       .  S
C1687      C1688   1.391       .  A
C1687      C1757   1.485       .  S
C1688      H1693   1.084       .  S
C1689      C1690   1.417       .  A
C1689      C1738   1.491       .  S
C1690      C1691   1.423       .  A
C1690      H1694   1.080       .  S
C1691      C1692   1.418       .  A
C1692      H1695   1.078       .  S
C1696      C1697   1.402       .  A
C1696      C1701   1.397       .  A
C1696      C1770   1.487       .  S
C1697      C1698   1.418       .  A
C1697      H1702   1.077       .  S
C1698      C1699   1.417       .  A
C1699      C1700   1.410       .  A
C1699      H1703   1.073       .  S
C1700      C1701   1.406       .  A
C1700      C1722   1.500       .  S
C1701      H1704   1.083       .  S
C1705      C1710   1.405       .  A
C1705      C2202   1.499       .  S
C1706      C1707   1.407       .  A
C1706      C1741   1.498       .  S
C1707      C2452   1.405   1_545  A
C1707      H1712   1.083       .  S
C1708      C2451   1.404       .  A
C1708      C1709   1.421       .  A
C1708      C1962   1.490       .  S
C1709      C1818   1.500       .  S
C1710      H1711   1.078       .  S
C1713      C1714   1.426       .  A
C1713      C1718   1.404       .  A
C1713      C1725   1.502       .  S
C1714      C1715   1.407       .  A
C1714      C2141   1.488       .  S
C1715      C1716   1.404       .  A
C1715      H1720   1.084       .  S
C1716      C1717   1.416       .  A
C1716      C1837   1.494       .  S
C1717      C1718   1.401       .  A
C1717      C1949   1.481       .  S
C1718      H1719   1.082       .  S
C1721      C1722   1.409       .  A
C1721      C1726   1.407       .  A
C1721      H1728   1.084       .  S
C1722      C1723   1.420       .  A
C1723      C1724   1.403       .  A
C1723      C1730   1.509       .  S
C1724      C1725   1.404       .  A
C1724      H1729   1.082       .  S
C1725      C1726   1.417       .  A
C1726      C1727   1.510       .  S
C1727      H1731   1.111       .  S
C1727      H1732   1.109       .  S
C1727      H1733   1.108       .  S
C1730      H1734   1.110       .  S
C1730      H1735   1.104       .  S
C1730      H1736   1.111       .  S
C1737      C1742   1.412       .  A
C1737      H1744   1.084       .  S
C1738      C1739   1.419   1_655  A
C1739      C1740   1.399       .  A
C1739      C1746   1.512   1_455  S
C1740      H2489   1.084   1_545  S
C1741      C1742   1.418       .  A
C1742      C1743   1.506       .  S
C1743      H1747   1.111       .  S
C1743      H1748   1.108       .  S
C1743      H1749   1.110       .  S
H1745      C2484   1.084       .  S
C1746      H1750   1.106   1_655  S
C1746      H1751   1.111       .  S
C1746      H1752   1.111       .  S
C1753      C1754   1.411       .  A
C1753      C1758   1.401       .  A
C1753      H1760   1.083       .  S
C1754      C1755   1.421       .  A
C1755      C1756   1.408       .  A
C1755      C1762   1.507       .  S
C1756      C1757   1.404       .  A
C1756      H1761   1.084       .  S
C1757      C1758   1.410       .  A
C1758      C1759   1.510       .  S
C1759      H1763   1.111       .  S
C1759      H1764   1.110       .  S
C1759      H1765   1.108       .  S
C1762      H1766   1.110       .  S
C1762      H1767   1.110       .  S
C1762      H1768   1.111       .  S
C1769      C1770   1.405       .  A
C1769      C1774   1.413       .  A
C1769      H1776   1.084       .  S
C1770      C1771   1.412       .  A
C1771      C1772   1.401       .  A
C1771      C1778   1.509       .  S
C1772      C1773   1.408       .  A
C1772      H1777   1.084       .  S
C1773      C1774   1.420       .  A
C1774      C1775   1.506       .  S
C1775      H1779   1.111       .  S
C1775      H1780   1.110       .  S
C1775      H1781   1.110       .  S
C1778      H1782   1.111       .  S
C1778      H1783   1.109       .  S
C1778      H1784   1.111       .  S
C1785      C1786   1.410       .  A
C1785      C1790   1.411       .  A
C1785      H1792   1.084       .  S
C1786      C1787   1.424       .  A
C1787      C1788   1.402       .  A
C1787      C1794   1.510       .  S
C1788      C1789   1.399       .  A
C1788      H1793   1.085       .  S
C1789      C1790   1.412       .  A
C1790      C1791   1.505       .  S
C1791      H1795   1.111       .  S
C1791      H1796   1.110       .  S
C1791      H1797   1.108       .  S
C1794      H1798   1.109       .  S
C1794      H1799   1.111       .  S
C1794      H1800   1.111       .  S
C1801      C1802   1.400       .  A
C1801      C1806   1.399       .  A
C1801      H1808   1.085       .  S
C1802      C1803   1.411       .  A
C1803      C1804   1.412       .  A
C1804      C1805   1.408       .  A
C1804      H1809   1.084       .  S
C1805      C1806   1.417       .  A
C1806      C1807   1.510       .  S
C1807      H1811   1.110       .  S
C1807      H1812   1.106       .  S
C1807      H1813   1.111       .  S
C1810      H1814   1.110       .  S
C1810      H1815   1.111       .  S
C1810      H1816   1.111       .  S
C1817      C1818   1.408       .  A
C1817      C1822   1.406       .  A
C1817      H1824   1.084       .  S
C1818      C1819   1.414       .  A
C1819      C1820   1.405       .  A
C1820      C1821   1.410       .  A
C1821      C1822   1.416       .  A
C1822      C1823   1.507       .  S
C1823      H1827   1.111       .  S
C1823      H1828   1.107       .  S
C1823      H1829   1.108       .  S
C1826      H1830   1.108       .  S
C1826      H1831   1.109       .  S
C1826      H1832   1.111       .  S
C1833      C1834   1.409       .  A
C1833      C1838   1.412       .  A
C1833      H1840   1.084       .  S
C1834      C1835   1.422       .  A
C1835      C1836   1.400       .  A
C1835      C1842   1.511       .  S
C1836      C1837   1.399       .  A
C1836      H1841   1.083       .  S
C1837      C1838   1.415       .  A
C1838      C1839   1.505       .  S
C1839      H1843   1.110       .  S
C1839      H1844   1.108       .  S
C1839      H1845   1.110       .  S
C1842      H1846   1.110       .  S
C1842      H1847   1.104       .  S
C1842      H1848   1.109       .  S
C1849      C1850   1.407   1_455  A
C1849      H1856   1.084       .  S
C1850      C1851   1.410       .  A
C1851      C1852   1.395       .  A
C1851      C1858   1.509       .  S
C1852      C1853   1.403   1_655  A
C1852      H1857   1.085       .  S
C1854      C1855   1.505       .  S
C1855      H1859   1.111       .  S
C1855      H1860   1.110       .  S
C1855      H1861   1.109       .  S
C1858      H1862   1.107       .  S
C1858      H1863   1.109       .  S
C1858      H1864   1.111       .  S
C1865      C1866   1.397   1_655  A
C1865      C1870   1.398       .  A
C1866      C1867   1.411       .  A
C1867      C1868   1.406   1_455  A
C1867      C1874   1.505       .  S
C1868      C1869   1.404       .  A
C1868      H1873   1.084   1_655  S
C1869      C1870   1.418       .  A
C1870      C1871   1.510       .  S
C1871      H1875   1.111       .  S
C1871      H1876   1.109       .  S
C1871      H1877   1.109       .  S
C1874      H1878   1.110       .  S
C1874      H1879   1.110       .  S
C1874      H1880   1.111       .  S
C1881      C1882   1.401       .  A
C1881      C1886   1.406       .  A
C1881      H1888   1.084       .  S
C1882      C1883   1.422       .  A
C1883      C1884   1.405       .  A
C1883      C1890   1.509       .  S
C1884      C1885   1.398       .  A
C1884      H1889   1.084       .  S
C1885      C1886   1.414       .  A
C1886      C1887   1.507       .  S
C1887      H1891   1.111       .  S
C1887      H1892   1.109       .  S
C1887      H1893   1.110       .  S
C1890      H1894   1.109       .  S
C1890      H1895   1.109       .  S
C1890      H1896   1.111       .  S
C1897      C1898   1.404       .  A
C1897      C1902   1.404       .  A
C1897      H1904   1.084       .  S
C1898      C1899   1.424       .  A
C1899      C1900   1.408       .  A
C1899      C1906   1.508       .  S
C1900      C1901   1.399       .  A
C1900      H1905   1.084       .  S
C1901      C1902   1.416       .  A
C1902      C1903   1.508       .  S
C1903      H1907   1.111       .  S
C1903      H1908   1.110       .  S
C1903      H1909   1.107       .  S
C1906      H1910   1.108       .  S
C1906      H1911   1.109       .  S
C1906      H1912   1.111       .  S
C1913      C1914   1.401       .  A
C1913      C1918   1.401       .  A
C1913      H1920   1.084       .  S
C1915      C1916   1.403       .  A
C1915      C1922   1.505   1_554  S
C1916      C1917   1.407   1_655  A
C1916      H1921   1.083       .  S
C1918      C1919   1.508       .  S
C1919      H1923   1.111       .  S
C1919      H1924   1.109       .  S
C1919      H1925   1.110       .  S
C1922      H1926   1.110       .  S
C1922      H1927   1.097       .  S
C1922      H1928   1.111       .  S
C1929      C1930   1.404       .  A
C1929      C1934   1.411       .  A
C1930      C1931   1.414       .  A
C1931      C1932   1.395       .  A
C1931      C1938   1.507       .  S
C1932      C1933   1.403       .  A
C1932      H1937   1.083       .  S
C1933      C1934   1.422       .  A
C1935      H1939   1.111       .  S
C1935      H1940   1.108       .  S
C1935      H1941   1.108   1_455  S
C1938      H1942   1.110       .  S
C1938      H1943   1.107       .  S
C1938      H1944   1.111       .  S
C1945      C1946   1.408       .  A
C1945      C1950   1.403       .  A
C1945      H1952   1.084       .  S
C1946      C1947   1.424       .  A
C1947      C1948   1.402       .  A
C1947      C1954   1.512       .  S
C1948      C1949   1.397       .  A
C1948      H1953   1.084       .  S
C1949      C1950   1.408       .  A
C1950      C1951   1.506       .  S
C1951      H1955   1.111       .  S
C1951      H1956   1.110       .  S
C1951      H1957   1.108       .  S
C1954      H1958   1.105       .  S
C1954      H1959   1.110       .  S
C1954      H1960   1.110       .  S
C1961      C1962   1.405       .  A
C1961      C1966   1.412       .  A
C1961      H1968   1.084       .  S
C1962      C1963   1.410       .  A
C1963      C1964   1.395       .  A
C1963      C1970   1.507       .  S
C1964      C1965   1.410       .  A
C1964      H1969   1.083       .  S
C1965      C1966   1.422       .  A
C1966      C1967   1.505       .  S
C1967      H2715   1.111       .  S
C1967      H1972   1.110       .  S
C1967      H2717   1.107       .  S
C1970      H1974   1.110       .  S
C1970      H1975   1.108       .  S
C1970      H1976   1.110       .  S
H1971      C2711   1.111       .  S
H1973      C2711   1.107       .  S
C1977      C1978   1.401       .  A
C1977      C1982   1.405       .  A
C1977      H1984   1.084       .  S
C1978      C1979   1.416       .  A
C1979      C1980   1.405       .  A
C1979      C1986   1.508       .  S
C1980      C1981   1.402       .  A
C1980      H1985   1.084       .  S
C1981      C1982   1.415       .  A
C1982      C1983   1.507       .  S
C1983      H1987   1.111       .  S
C1983      H1988   1.110       .  S
C1983      H1989   1.111       .  S
C1986      H1990   1.109       .  S
C1986      H1991   1.111       .  S
C1986      H1992   1.111       .  S
C1993      C1994   1.404       .  A
C1993      C2742   1.409   1_545  A
C1993      H2000   1.084       .  S
C1994      C1995   1.425       .  A
C1995      C1996   1.403   1_545  A
C1995      C2002   1.511       .  S
C1996      C2741   1.401       .  A
C1996      H2001   1.083       .  S
C1997      C2740   1.401       .  A
C1997      C1998   1.422       .  A
C1998      C2737   1.408       .  A
C1998      C1999   1.508       .  S
C1999      H2003   1.111       .  S
C1999      H2004   1.109       .  S
C1999      H2005   1.110       .  S
C2002      H2006   1.111   1_545  S
C2002      H2007   1.108       .  S
C2002      H2008   1.111   1_545  S
C2009      C2010   1.408       .  A
C2009      C2014   1.404       .  A
C2009      H2016   1.082       .  S
C2010      C2011   1.422       .  A
C2011      C2012   1.403       .  A
C2011      C2018   1.508       .  S
C2012      C2013   1.403       .  A
C2012      H2017   1.084       .  S
C2013      C2014   1.413       .  A
C2014      C2015   1.505       .  S
C2015      H2019   1.111       .  S
C2015      H2020   1.110       .  S
C2015      H2021   1.099       .  S
C2018      H2022   1.108       .  S
C2018      H2023   1.111       .  S
C2018      H2024   1.111       .  S
C2025      C2026   1.407       .  A
C2025      C2030   1.411       .  A
C2025      H2032   1.084       .  S
C2026      C2027   1.429       .  A
C2027      C2028   1.403       .  A
C2027      C2034   1.512       .  S
C2028      C2029   1.401       .  A
C2028      H2033   1.084       .  S
C2029      C2030   1.420       .  A
C2030      C2031   1.503       .  S
C2031      H2035   1.110       .  S
C2031      H2036   1.106       .  S
C2031      H2037   1.110       .  S
C2034      H2038   1.111       .  S
C2034      H2039   1.110       .  S
C2034      H2040   1.111       .  S
C2041      C2042   1.400       .  A
C2041      C2790   1.404   1_545  A
C2041      H2048   1.084       .  S
C2042      C2043   1.416       .  A
C2043      C2044   1.403       .  A
C2043      C2050   1.509       .  S
C2044      C2789   1.399   1_545  A
C2044      H2049   1.084       .  S
C2045      C2788   1.399       .  A
C2045      C2046   1.414       .  A
C2046      C2785   1.403       .  A
C2046      C2047   1.508       .  S
C2047      H2051   1.111       .  S
C2047      H2052   1.110       .  S
C2047      H2053   1.111       .  S
C2050      H2054   1.109       .  S
C2050      H2055   1.111       .  S
C2050      H2056   1.111       .  S
C2057      C2058   1.395       .  A
C2057      C2062   1.403       .  A
C2057      H2064   1.085       .  S
C2058      C2059   1.410       .  A
C2059      C2060   1.413       .  A
C2059      C2066   1.503       .  S
C2060      C2061   1.414       .  A
C2060      H2065   1.083       .  S
C2061      C2062   1.431       .  A
C2062      C2063   1.511       .  S
C2063      H2067   1.110       .  S
C2063      H2068   1.109       .  S
C2063      H2069   1.107       .  S
C2066      H2070   1.106       .  S
C2066      H2071   1.110       .  S
C2066      H2072   1.111       .  S
C2073      C2074   1.405       .  A
C2073      C2078   1.407       .  A
C2073      H2080   1.083       .  S
C2074      C2075   1.414       .  A
C2075      C2076   1.406       .  A
C2075      C2082   1.508       .  S
C2076      C2077   1.411       .  A
C2076      H2081   1.083       .  S
C2077      C2078   1.423       .  A
C2078      C2079   1.510       .  S
C2079      H2083   1.111       .  S
C2079      H2084   1.110       .  S
C2079      H2085   1.107       .  S
C2082      H2086   1.110       .  S
C2082      H2087   1.108       .  S
C2082      H2088   1.111       .  S
C2089      C2090   1.399       .  A
C2089      C2094   1.399       .  A
C2089      H2096   1.082       .  S
C2090      C2091   1.412       .  A
C2091      C2092   1.406       .  A
C2091      C2098   1.506       .  S
C2092      C2093   1.403       .  A
C2092      H2097   1.084       .  S
C2093      C2094   1.418       .  A
C2094      C2095   1.512       .  S
C2095      H2099   1.108       .  S
C2095      H2100   1.105       .  S
C2095      H2101   1.111       .  S
C2098      H2102   1.109       .  S
C2098      H2103   1.107       .  S
C2098      H2104   1.111       .  S
C2105      C2106   1.403       .  A
C2105      C2110   1.407       .  A
C2105      H2112   1.084       .  S
C2106      C2107   1.415       .  A
C2106      C2276   1.484       .  S
C2107      C2108   1.401       .  A
C2107      C2114   1.509       .  S
C2108      C2109   1.404       .  A
C2108      H2113   1.084       .  S
C2109      C2110   1.416       .  A
C2110      C2111   1.507   1_554  S
C2111      H2115   1.111       .  S
C2111      H2860   1.110       .  S
C2111      H2117   1.108       .  S
C2114      H2862   1.110       .  S
C2114      H2119   1.107       .  S
C2114      H2120   1.111       .  S
H2116      C2855   1.110       .  S
H2118      C2858   1.111       .  S
C2121      C2122   1.406       .  A
C2121      C2126   1.399       .  A
C2121      H2128   1.084   1_655  S
C2122      C2123   1.422       .  A
C2123      C2124   1.408       .  A
C2123      C2130   1.510   1_554  S
C2124      C2125   1.402       .  A
C2124      H2129   1.084       .  S
C2125      C2126   1.412       .  A
C2126      C2127   1.510       .  S
C2127      H2131   1.111   1_655  S
C2127      H2132   1.110       .  S
C2127      H2133   1.108       .  S
C2130      H2134   1.108       .  S
C2130      H2135   1.108       .  S
C2130      H2136   1.111       .  S
C2137      C2138   1.408       .  A
C2137      C2142   1.400       .  A
C2137      H2144   1.084       .  S
C2138      C2139   1.416       .  A
C2139      C2140   1.409       .  A
C2139      C2146   1.506       .  S
C2140      C2141   1.405       .  A
C2140      H2145   1.084       .  S
C2141      C2142   1.409       .  A
C2142      C2143   1.506       .  S
C2143      H2147   1.111       .  S
C2143      H2148   1.110       .  S
C2143      H2149   1.102       .  S
C2146      H2150   1.110       .  S
C2146      H2151   1.108       .  S
C2146      H2152   1.111       .  S
C2153      C2154   1.409       .  A
C2153      C2158   1.398       .  A
C2153      H2160   1.084       .  S
C2154      C2155   1.416       .  A
C2155      C2156   1.405       .  A
C2155      C2162   1.507       .  S
C2156      C2157   1.404       .  A
C2156      H2161   1.084       .  S
C2157      C2158   1.407       .  A
C2158      C2159   1.508       .  S
C2159      H2163   1.111       .  S
C2159      H2164   1.108       .  S
C2159      H2165   1.110       .  S
C2162      H2166   1.110       .  S
C2162      H2167   1.110       .  S
C2162      H2168   1.111       .  S
C2169      C2170   1.405       .  A
C2169      C2174   1.406       .  A
C2169      H2176   1.084       .  S
C2170      C2171   1.408       .  A
C2171      C2172   1.400       .  A
C2171      C2178   1.508       .  S
C2172      C2173   1.409       .  A
C2172      H2177   1.084       .  S
C2173      C2174   1.415       .  A
C2174      C2175   1.507       .  S
C2175      H2179   1.111       .  S
C2175      H2180   1.110       .  S
C2175      H2181   1.110       .  S
C2178      H2182   1.109       .  S
C2178      H2183   1.111       .  S
C2178      H2184   1.111       .  S
C2185      C2186   1.396       .  A
C2185      C2190   1.401       .  A
C2185      H2192   1.084       .  S
C2186      C2187   1.413       .  A
C2187      C2188   1.403       .  A
C2187      C2194   1.508       .  S
C2188      C2189   1.404       .  A
C2188      H2193   1.084       .  S
C2189      C2190   1.422       .  A
C2190      C2191   1.510       .  S
C2191      H2195   1.111       .  S
C2191      H2196   1.111       .  S
C2191      H2197   1.109       .  S
C2194      H2198   1.109       .  S
C2194      H2199   1.110       .  S
C2194      H2200   1.111       .  S
C2201      C2946   1.406   1_545  A
C2201      C2206   1.405       .  A
C2201      H2208   1.084       .  S
C2202      C2945   1.406       .  A
C2202      C2203   1.414       .  A
C2203      C2204   1.403       .  A
C2203      C2210   1.509       .  S
C2204      C2205   1.412       .  A
C2204      H2209   1.082       .  S
C2205      C2950   1.421       .  A
C2205      C2237   1.505       .  S
C2206      C2949   1.422   1_545  A
C2206      C2207   1.508       .  S
C2207      H2211   1.110       .  S
C2207      H2212   1.109       .  S
C2207      H2213   1.108       .  S
C2210      H2214   1.107       .  S
C2210      H2215   1.110   1_655  S
C2210      H2216   1.111       .  S
C2217      C2218   1.404       .  A
C2217      C2222   1.408       .  A
C2217      H2224   1.084       .  S
C2218      C2219   1.410       .  A
C2219      C2220   1.397       .  A
C2219      C2226   1.508       .  S
C2220      C2221   1.403       .  A
C2220      H2225   1.085       .  S
C2221      C2222   1.412       .  A
C2222      C2223   1.505       .  S
C2223      H2227   1.111       .  S
C2223      H2228   1.111       .  S
C2223      H2229   1.110       .  S
C2226      H2230   1.110       .  S
C2226      H2231   1.110       .  S
C2226      H2232   1.111       .  S
C2233      C2238   1.390       .  A
C2233      C2962   1.476       .  S
C2234      C2235   1.414       .  A
C2234      H2239   1.078       .  S
C2235      C2236   1.421       .  A
C2235      C2442   1.519       .  S
C2236      C2237   1.414       .  A
C2236      H2240   1.073       .  S
C2238      H2241   1.083       .  S
O2242     Cu2250   1.977       .  S
O2242      C2252   1.274       .  A
O2243     Cu2250   1.976       .  S
O2243      C2253   1.273       .  A
O2244     Cu2250   2.028       .  S
O2244      C2254   1.281       .  A
O2245     Cu2250   2.027       .  S
O2245      C2255   1.281       .  A
O2246     Cu2251   1.978       .  S
O2246      C2255   1.272       .  A
O2247     Cu2251   1.972       .  S
O2247      C2254   1.274       .  A
O2248     Cu2251   2.033       .  S
O2248      C2253   1.281       .  A
O2249     Cu2251   2.034       .  S
O2249      C2252   1.281       .  A
Cu2250    Cu2251   2.369       .  S
C2252      C2917   1.484       .  S
C2253      C2965   1.475       .  S
C2254      C2898   1.484       .  S
C2255      C2933   1.481       .  S
C2256      C2257   1.386       .  A
C2256      C2261   1.394       .  A
C2256      C2930   1.475       .  S
C2257      C2258   1.399       .  A
C2257      H2262   1.085       .  S
C2258      C2259   1.418       .  A
C2258      C2882   1.491       .  S
C2259      C2260   1.422       .  A
C2259      H2263   1.079       .  S
C2260      C2261   1.417       .  A
C2260      C2435   1.517       .  S
C2261      H2264   1.078       .  S
C2265      C2266   1.402       .  A
C2265      C2270   1.391       .  A
C2265      C2914   1.478       .  S
C2266      C2267   1.417       .  A
C2266      H2271   1.078       .  S
C2267      C2268   1.420       .  A
C2267      C2410   1.513       .  S
C2268      C2269   1.409       .  A
C2268      H2272   1.081       .  S
C2269      C2270   1.395       .  A
C2269      C2869   1.482       .  S
C2270      H2273   1.084       .  S
C2274      C2275   1.390       .  A
C2274      C2901   1.474       .  S
C2275      H2280   1.084       .  S
C2276      C2277   1.411       .  A
C2277      C2278   1.421       .  A
C2277      H2281   1.081       .  S
C2278      C2279   1.412       .  A
C2278      C2401   1.509       .  S
C2279      H2282   1.079       .  S
C2283      C2288   1.409   1_554  A
C2283      C2853   1.491       .  S
C2284      C2285   1.404   1_554  A
C2284      C2818   1.502       .  S
C2285      H2290   1.082       .  S
C2286      C2287   1.418       .  A
C2286      C2834   1.484       .  S
C2287      C2288   1.403       .  A
C2287      C2802   1.495       .  S
C2288      H2289   1.083       .  S
C2291      C2292   1.398       .  A
C2291      C2296   1.386       .  A
C2291      C2789   1.476       .  S
C2292      C2293   1.419       .  A
C2292      H2297   1.078       .  S
C2293      C2294   1.418       .  A
C2293      C2374   1.512       .  S
C2294      C2295   1.410       .  A
C2294      H2298   1.080       .  S
C2295      C2296   1.396       .  A
C2295      C2837   1.482       .  S
C2296      H2299   1.084       .  S
C2300      C2301   1.400       .  A
C2300      C2305   1.408       .  A
C2300      C2773   1.502       .  S
C2301      C2302   1.408       .  A
C2301      H2306   1.080       .  S
C2302      C2303   1.412       .  A
C2302      C2754   1.501       .  S
C2303      C2304   1.411       .  A
C2303      H2307   1.081       .  S
C2304      C2305   1.415       .  A
C2304      C2367   1.508       .  S
C2305      H2308   1.081       .  S
O2309     Cu2317   2.065       .  S
O2309      C2319   1.286       .  A
O2310     Cu2317   2.066       .  S
O2310      C2320   1.287       .  A
O2311     Cu2317   1.982       .  S
O2311      C2321   1.272       .  A
O2312     Cu2317   1.975       .  S
O2312      C2322   1.271       .  A
O2313     Cu2318   2.035       .  S
O2313      C2322   1.281       .  A
O2314     Cu2318   2.037       .  S
O2314      C2321   1.282       .  A
O2315     Cu2318   1.965       .  S
O2315      C2320   1.269       .  A
O2316     Cu2318   1.968       .  S
O2316      C2319   1.270       .  A
Cu2317    Cu2318   2.365       .  S
C2319      C2738   1.495       .  S
C2320      C2770   1.502       .  S
C2321      C2722   1.476       .  S
C2322      C2786   1.472       .  S
C2323      C2324   1.406       .  A
C2323      C2328   1.398       .  A
C2323      C2741   1.499       .  S
C2324      C2325   1.415       .  A
C2324      H2329   1.081       .  S
C2325      C2326   1.416       .  A
C2325      C2383   1.510       .  S
C2326      C2327   1.415       .  A
C2326      H2330   1.080       .  S
C2327      C2328   1.404       .  A
C2327      C2709   1.503       .  S
C2328      H2331   1.083       .  S
C2332      C2333   1.403       .  A
C2332      C2337   1.392       .  A
C2332      C2725   1.480       .  S
C2333      C2334   1.416       .  A
C2333      H2338   1.080       .  S
C2334      C2335   1.416       .  A
C2334      C2394   1.508       .  S
C2335      C2336   1.411       .  A
C2335      H2339   1.082       .  S
C2336      C2337   1.396       .  A
C2336      C2690   1.492       .  S
C2337      H2340   1.079       .  S
C2341      C2346   1.404   1_554  A
C2341      C2658   1.495       .  S
C2342      C2343   1.405   1_554  A
C2342      C2866   1.500   1_455  S
C2343      H2348   1.074   1_455  S
C2344      C2345   1.426       .  A
C2344      C2677   1.500       .  S
C2345      C2346   1.403       .  A
C2345      C2757   1.496       .  S
C2346      H2347   1.084       .  S
O2349     Cu2357   1.994       .  S
O2349      C2359   1.274       .  A
O2350     Cu2357   1.977       .  S
O2350      C2360   1.273       .  A
O2351     Cu2357   2.041       .  S
O2351      C2361   1.281       .  A
O2352     Cu2357   2.041       .  S
O2352      C2362   1.283       .  A
O2353     Cu2358   1.987       .  S
O2353      C2362   1.273       .  A
O2354     Cu2358   1.983       .  S
O2354      C2361   1.273       .  A
O2355     Cu2358   2.028       .  S
O2355      C2360   1.281       .  A
O2356     Cu2358   2.039       .  S
O2356      C2359   1.283       .  A
Cu2357    Cu2358   2.371       .  S
C2359      C2642   1.490       .  S
C2360      C2613   1.473       .  S
C2361      C2594   1.475       .  S
C2362      C2626   1.483       .  S
C2363      C2364   1.395       .  A
C2363      C2368   1.395       .  A
C2363      C2629   1.480       .  S
C2364      C2365   1.406       .  A
C2364      H2369   1.077       .  S
C2365      C2366   1.421       .  A
C2365      C2805   1.514       .  S
C2366      C2367   1.421       .  A
C2366      H2370   1.082       .  S
C2367      C2368   1.410       .  A
C2368      H2371   1.081       .  S
C2372      C2373   1.396       .  A
C2372      C2377   1.390       .  A
C2373      C2374   1.414       .  A
C2373      H2378   1.078       .  S
C2374      C2375   1.421       .  A
C2375      C2376   1.412       .  A
C2375      H2379   1.080       .  S
C2376      C2377   1.398       .  A
C2376      C2674   1.487       .  S
C2377      H2380   1.084       .  S
C2381      C2382   1.398       .  A
C2381      C2386   1.393       .  A
C2381      C2645   1.482       .  S
C2382      C2383   1.416       .  A
C2382      H2387   1.081       .  S
C2383      C2384   1.421       .  A
C2384      C2385   1.417       .  A
C2384      H2388   1.082       .  S
C2385      C2386   1.402       .  A
C2385      C2578   1.499       .  S
C2386      H2389   1.081       .  S
C2390      C2391   1.396       .  A
C2390      C2395   1.403       .  A
C2391      C2392   1.402       .  A
C2391      H2396   1.084       .  S
C2392      C2393   1.409       .  A
C2392      C2565   1.499       .  S
C2393      C2394   1.417       .  A
C2393      H2397   1.079       .  S
C2394      C2395   1.415       .  A
C2395      H2398   1.079       .  S
C2399      C2404   1.392       .  A
C2399      C2546   1.483       .  S
C2400      C2401   1.419       .  A
C2400      H2405   1.079       .  S
C2401      C2402   1.415       .  A
C2402      C2403   1.411       .  A
C2402      H2406   1.080       .  S
C2403      C2661   1.497   1_655  S
C2404      H2407   1.082       .  S
C2408      C2409   1.400       .  A
C2408      C2413   1.396       .  A
C2408      C2533   1.484       .  S
C2409      C2410   1.414       .  A
C2409      H2414   1.079       .  S
C2410      C2411   1.416       .  A
C2411      C2412   1.413       .  A
C2411      H2415   1.076       .  S
C2412      C2413   1.410       .  A
C2412      C2821   1.506       .  S
C2413      H2416   1.083       .  S
O2417     Cu2425   2.039       .  S
O2417      C2427   1.281       .  A
O2418     Cu2425   2.039       .  S
O2418      C2428   1.281       .  A
O2419     Cu2425   1.991       .  S
O2419      C2429   1.274       .  A
O2420     Cu2425   1.985       .  S
O2420      C2430   1.275       .  A
O2421     Cu2426   2.036       .  S
O2421      C2430   1.281       .  A
O2422     Cu2426   2.040       .  S
O2422      C2429   1.282       .  A
O2423     Cu2426   1.995       .  S
O2423      C2428   1.277       .  A
O2424     Cu2426   1.996       .  S
O2424      C2427   1.276       .  A
Cu2425    Cu2426   2.365       .  S
C2427      C2549   1.480       .  S
C2428      C2517   1.495       .  S
C2429      C2530   1.492       .  S
C2430      C2498   1.497       .  S
C2431      C2432   1.391       .  A
C2431      C2501   1.484       .  S
C2432      H2437   1.084       .  S
C2433      C2434   1.416       .  A
C2433      C2482   1.491   1_655  S
C2434      C2435   1.422       .  A
C2434      H2438   1.080       .  S
C2435      C2436   1.417       .  A
C2436      H2439   1.078       .  S
C2440      C2441   1.402       .  A
C2440      C2445   1.397       .  A
C2440      C2514   1.486       .  S
C2441      C2442   1.417       .  A
C2441      H2446   1.077       .  S
C2442      C2443   1.416       .  A
C2443      C2444   1.409       .  A
C2443      H2447   1.073       .  S
C2444      C2445   1.406       .  A
C2444      C2466   1.499       .  S
C2445      H2448   1.083       .  S
C2449      C2454   1.405       .  A
C2449      C2946   1.498       .  S
C2450      C2451   1.406       .  A
C2450      C2485   1.496       .  S
C2451      H2456   1.083       .  S
C2452      C2453   1.421       .  A
C2452      C2706   1.490       .  S
C2453      C2562   1.501       .  S
C2454      H2455   1.078       .  S
C2457      C2458   1.426       .  A
C2457      C2462   1.404       .  A
C2457      C2469   1.502       .  S
C2458      C2459   1.407       .  A
C2458      C2885   1.488       .  S
C2459      C2460   1.403       .  A
C2459      H2464   1.084       .  S
C2460      C2461   1.416       .  A
C2460      C2581   1.494       .  S
C2461      C2462   1.401       .  A
C2461      C2693   1.481       .  S
C2462      H2463   1.082       .  S
C2465      C2466   1.408       .  A
C2465      C2470   1.407       .  A
C2465      H2472   1.084       .  S
C2466      C2467   1.420       .  A
C2467      C2468   1.403       .  A
C2467      C2474   1.509       .  S
C2468      C2469   1.404       .  A
C2468      H2473   1.082       .  S
C2469      C2470   1.417       .  A
C2470      C2471   1.510       .  S
C2471      H2475   1.111       .  S
C2471      H2476   1.109       .  S
C2471      H2477   1.108       .  S
C2474      H2478   1.110       .  S
C2474      H2479   1.104       .  S
C2474      H2480   1.111       .  S
C2481      C2486   1.412       .  A
C2481      H2488   1.084       .  S
C2482      C2483   1.419       .  A
C2483      C2484   1.398       .  A
C2483      C2490   1.512   1_455  S
C2485      C2486   1.417       .  A
C2486      C2487   1.506       .  S
C2487      H2491   1.111       .  S
C2487      H2492   1.108       .  S
C2487      H2493   1.110       .  S
C2490      H2494   1.106   1_655  S
C2490      H2495   1.111       .  S
C2490      H2496   1.111       .  S
C2497      C2498   1.411       .  A
C2497      C2502   1.401       .  A
C2497      H2504   1.083       .  S
C2498      C2499   1.421       .  A
C2499      C2500   1.408       .  A
C2499      C2506   1.507       .  S
C2500      C2501   1.404       .  A
C2500      H2505   1.084       .  S
C2501      C2502   1.410       .  A
C2502      C2503   1.509       .  S
C2503      H2507   1.111       .  S
C2503      H2508   1.110       .  S
C2503      H2509   1.108       .  S
C2506      H2510   1.110       .  S
C2506      H2511   1.110       .  S
C2506      H2512   1.111       .  S
C2513      C2514   1.404       .  A
C2513      C2518   1.413       .  A
C2513      H2520   1.084       .  S
C2514      C2515   1.411       .  A
C2515      C2516   1.401       .  A
C2515      C2522   1.509       .  S
C2516      C2517   1.408       .  A
C2516      H2521   1.084       .  S
C2517      C2518   1.420       .  A
C2518      C2519   1.506       .  S
C2519      H2523   1.111       .  S
C2519      H2524   1.110       .  S
C2519      H2525   1.110       .  S
C2522      H2526   1.111       .  S
C2522      H2527   1.109       .  S
C2522      H2528   1.111       .  S
C2529      C2530   1.409       .  A
C2529      C2534   1.411       .  A
C2529      H2536   1.084       .  S
C2530      C2531   1.422       .  A
C2531      C2532   1.402       .  A
C2531      C2538   1.510       .  S
C2532      C2533   1.399       .  A
C2532      H2537   1.085       .  S
C2533      C2534   1.411       .  A
C2534      C2535   1.505       .  S
C2535      H2539   1.111       .  S
C2535      H2540   1.110       .  S
C2535      H2541   1.109       .  S
C2538      H2542   1.109       .  S
C2538      H2543   1.111       .  S
C2538      H2544   1.111       .  S
C2545      C2546   1.401       .  A
C2545      C2550   1.399       .  A
C2545      H2552   1.085       .  S
C2546      C2547   1.411       .  A
C2547      C2548   1.412       .  A
C2548      C2549   1.407       .  A
C2548      H2553   1.084       .  S
C2549      C2550   1.416       .  A
C2550      C2551   1.510       .  S
C2551      H2555   1.110       .  S
C2551      H2556   1.106       .  S
C2551      H2557   1.111       .  S
C2554      H2558   1.110       .  S
C2554      H2559   1.111       .  S
C2554      H2560   1.111       .  S
C2561      C2562   1.408       .  A
C2561      C2566   1.406       .  A
C2561      H2568   1.084       .  S
C2562      C2563   1.415       .  A
C2563      C2564   1.405       .  A
C2564      C2565   1.410       .  A
C2565      C2566   1.416       .  A
C2566      C2567   1.507       .  S
C2567      H2571   1.111       .  S
C2567      H2572   1.107       .  S
C2567      H2573   1.108       .  S
C2570      H2574   1.108       .  S
C2570      H2575   1.109       .  S
C2570      H2576   1.111       .  S
C2577      C2578   1.409       .  A
C2577      C2582   1.411       .  A
C2577      H2584   1.084       .  S
C2578      C2579   1.423       .  A
C2579      C2580   1.400       .  A
C2579      C2586   1.511       .  S
C2580      C2581   1.398       .  A
C2580      H2585   1.083       .  S
C2581      C2582   1.415       .  A
C2582      C2583   1.505       .  S
C2583      H2587   1.110       .  S
C2583      H2588   1.108       .  S
C2583      H2589   1.110       .  S
C2586      H2590   1.110       .  S
C2586      H2591   1.104       .  S
C2586      H2592   1.109       .  S
C2593      C2594   1.407   1_455  A
C2593      H2600   1.084       .  S
C2594      C2595   1.411       .  A
C2595      C2596   1.396       .  A
C2595      C2602   1.509       .  S
C2596      C2597   1.402   1_655  A
C2596      H2601   1.085       .  S
C2598      C2599   1.505       .  S
C2599      H2603   1.111       .  S
C2599      H2604   1.110       .  S
C2599      H2605   1.109       .  S
C2602      H2606   1.107       .  S
C2602      H2607   1.109       .  S
C2602      H2608   1.111       .  S
C2609      C2610   1.397   1_655  A
C2609      C2614   1.398       .  A
C2610      C2611   1.411       .  A
C2611      C2612   1.406   1_455  A
C2611      C2618   1.505       .  S
C2612      C2613   1.404       .  A
C2612      H2617   1.084   1_655  S
C2613      C2614   1.418       .  A
C2614      C2615   1.510       .  S
C2615      H2619   1.111       .  S
C2615      H2620   1.109       .  S
C2615      H2621   1.109       .  S
C2618      H2622   1.109       .  S
C2618      H2623   1.110       .  S
C2618      H2624   1.111       .  S
C2625      C2626   1.402       .  A
C2625      C2630   1.406       .  A
C2625      H2632   1.084       .  S
C2626      C2627   1.422       .  A
C2627      C2628   1.406       .  A
C2627      C2634   1.509       .  S
C2628      C2629   1.398       .  A
C2628      H2633   1.084       .  S
C2629      C2630   1.414       .  A
C2630      C2631   1.507       .  S
C2631      H2635   1.111       .  S
C2631      H2636   1.109       .  S
C2631      H2637   1.110       .  S
C2634      H2638   1.109       .  S
C2634      H2639   1.109       .  S
C2634      H2640   1.111       .  S
C2641      C2642   1.403       .  A
C2641      C2646   1.404       .  A
C2641      H2648   1.084       .  S
C2642      C2643   1.423       .  A
C2643      C2644   1.407       .  A
C2643      C2650   1.509       .  S
C2644      C2645   1.399       .  A
C2644      H2649   1.084       .  S
C2645      C2646   1.416       .  A
C2646      C2647   1.508       .  S
C2647      H2651   1.111       .  S
C2647      H2652   1.110       .  S
C2647      H2653   1.107       .  S
C2650      H2654   1.108       .  S
C2650      H2655   1.109       .  S
C2650      H2656   1.111       .  S
C2657      C2658   1.402       .  A
C2657      C2662   1.401       .  A
C2657      H2664   1.084       .  S
C2659      C2660   1.404       .  A
C2659      C2666   1.505   1_554  S
C2660      C2661   1.407   1_655  A
C2660      H2665   1.083       .  S
C2662      C2663   1.508       .  S
C2663      H2667   1.111       .  S
C2663      H2668   1.109       .  S
C2663      H2669   1.110       .  S
C2666      H2670   1.110       .  S
C2666      H2671   1.097       .  S
C2666      H2672   1.111       .  S
C2673      C2674   1.404       .  A
C2673      C2678   1.411       .  A
C2674      C2675   1.414       .  A
C2675      C2676   1.395       .  A
C2675      C2682   1.507       .  S
C2676      C2677   1.402       .  A
C2676      H2681   1.083       .  S
C2677      C2678   1.422       .  A
C2679      H2683   1.111       .  S
C2679      H2684   1.108       .  S
C2679      H2685   1.108   1_455  S
C2682      H2686   1.110       .  S
C2682      H2687   1.107       .  S
C2682      H2688   1.111       .  S
C2689      C2690   1.407       .  A
C2689      C2694   1.403       .  A
C2689      H2696   1.084       .  S
C2690      C2691   1.424       .  A
C2691      C2692   1.402       .  A
C2691      C2698   1.512       .  S
C2692      C2693   1.398       .  A
C2692      H2697   1.084       .  S
C2693      C2694   1.408       .  A
C2694      C2695   1.506       .  S
C2695      H2699   1.111       .  S
C2695      H2700   1.110       .  S
C2695      H2701   1.108       .  S
C2698      H2702   1.105       .  S
C2698      H2703   1.110       .  S
C2698      H2704   1.110       .  S
C2705      C2706   1.405       .  A
C2705      C2710   1.412       .  A
C2705      H2712   1.084       .  S
C2706      C2707   1.410       .  A
C2707      C2708   1.395       .  A
C2707      C2714   1.507       .  S
C2708      C2709   1.410       .  A
C2708      H2713   1.083       .  S
C2709      C2710   1.422       .  A
C2710      C2711   1.505       .  S
C2711      H2716   1.110       .  S
C2714      H2718   1.110       .  S
C2714      H2719   1.108   1_565  S
C2714      H2720   1.110   1_565  S
C2721      C2722   1.401       .  A
C2721      C2726   1.404       .  A
C2721      H2728   1.084       .  S
C2722      C2723   1.416       .  A
C2723      C2724   1.405       .  A
C2723      C2730   1.508       .  S
C2724      C2725   1.402       .  A
C2724      H2729   1.084       .  S
C2725      C2726   1.414       .  A
C2726      C2727   1.507       .  S
C2727      H2731   1.111       .  S
C2727      H2732   1.110       .  S
C2727      H2733   1.111       .  S
C2730      H2734   1.109       .  S
C2730      H2735   1.111       .  S
C2730      H2736   1.111       .  S
C2737      C2738   1.404       .  A
C2737      H2744   1.084       .  S
C2738      C2739   1.425       .  A
C2739      C2740   1.402       .  A
C2739      C2746   1.511       .  S
C2740      H2745   1.083       .  S
C2741      C2742   1.422       .  A
C2742      C2743   1.508       .  S
C2743      H2747   1.111       .  S
C2743      H2748   1.109       .  S
C2743      H2749   1.110       .  S
C2746      H2750   1.111       .  S
C2746      H2751   1.109       .  S
C2746      H2752   1.111       .  S
C2753      C2754   1.408       .  A
C2753      C2758   1.404       .  A
C2753      H2760   1.082       .  S
C2754      C2755   1.422       .  A
C2755      C2756   1.403       .  A
C2755      C2762   1.508       .  S
C2756      C2757   1.403       .  A
C2756      H2761   1.084       .  S
C2757      C2758   1.413       .  A
C2758      C2759   1.505       .  S
C2759      H2763   1.111       .  S
C2759      H2764   1.110       .  S
C2759      H2765   1.099       .  S
C2762      H2766   1.108       .  S
C2762      H2767   1.111       .  S
C2762      H2768   1.111       .  S
C2769      C2770   1.406       .  A
C2769      C2774   1.410       .  A
C2769      H2776   1.084       .  S
C2770      C2771   1.428       .  A
C2771      C2772   1.402       .  A
C2771      C2778   1.512       .  S
C2772      C2773   1.401       .  A
C2772      H2777   1.084       .  S
C2773      C2774   1.420       .  A
C2774      C2775   1.502       .  S
C2775      H2779   1.110       .  S
C2775      H2780   1.105       .  S
C2775      H2781   1.110       .  S
C2778      H2782   1.111       .  S
C2778      H2783   1.110       .  S
C2778      H2784   1.111       .  S
C2785      C2786   1.400       .  A
C2785      H2792   1.084       .  S
C2786      C2787   1.416       .  A
C2787      C2788   1.403       .  A
C2787      C2794   1.509       .  S
C2788      H2793   1.084       .  S
C2789      C2790   1.415       .  A
C2790      C2791   1.508       .  S
C2791      H2795   1.111       .  S
C2791      H2796   1.110       .  S
C2791      H2797   1.111       .  S
C2794      H2798   1.109       .  S
C2794      H2799   1.111       .  S
C2794      H2800   1.111       .  S
C2801      C2802   1.396       .  A
C2801      C2806   1.403       .  A
C2801      H2808   1.084       .  S
C2802      C2803   1.410       .  A
C2803      C2804   1.413       .  A
C2803      C2810   1.504       .  S
C2804      C2805   1.414       .  A
C2804      H2809   1.083       .  S
C2805      C2806   1.430       .  A
C2806      C2807   1.511       .  S
C2807      H2811   1.110       .  S
C2807      H2812   1.109       .  S
C2807      H2813   1.107       .  S
C2810      H2814   1.106       .  S
C2810      H2815   1.110       .  S
C2810      H2816   1.111       .  S
C2817      C2818   1.405       .  A
C2817      C2822   1.407       .  A
C2817      H2824   1.083       .  S
C2818      C2819   1.414       .  A
C2819      C2820   1.406       .  A
C2819      C2826   1.508       .  S
C2820      C2821   1.411       .  A
C2820      H2825   1.083       .  S
C2821      C2822   1.423       .  A
C2822      C2823   1.510       .  S
C2823      H2827   1.111       .  S
C2823      H2828   1.110       .  S
C2823      H2829   1.107       .  S
C2826      H2830   1.110       .  S
C2826      H2831   1.108       .  S
C2826      H2832   1.111       .  S
C2833      C2834   1.399       .  A
C2833      C2838   1.399       .  A
C2833      H2840   1.082       .  S
C2834      C2835   1.412       .  A
C2835      C2836   1.406       .  A
C2835      C2842   1.506       .  S
C2836      C2837   1.404       .  A
C2836      H2841   1.084       .  S
C2837      C2838   1.418       .  A
C2838      C2839   1.512       .  S
C2839      H2843   1.108       .  S
C2839      H2844   1.105       .  S
C2839      H2845   1.111       .  S
C2842      H2846   1.109       .  S
C2842      H2847   1.107       .  S
C2842      H2848   1.111       .  S
C2849      C2850   1.403       .  A
C2849      C2854   1.407       .  A
C2849      H2856   1.084       .  S
C2850      C2851   1.415       .  A
C2851      C2852   1.401       .  A
C2851      C2858   1.509   1_565  S
C2852      C2853   1.403       .  A
C2852      H2857   1.084       .  S
C2853      C2854   1.416       .  A
C2854      C2855   1.507   1_554  S
C2855      H2859   1.111       .  S
C2855      H2861   1.108       .  S
C2858      H2863   1.107   1_545  S
C2858      H2864   1.111       .  S
C2865      C2866   1.406       .  A
C2865      C2870   1.399       .  A
C2865      H2872   1.084   1_655  S
C2866      C2867   1.422       .  A
C2867      C2868   1.408       .  A
C2867      C2874   1.510   1_554  S
C2868      C2869   1.402       .  A
C2868      H2873   1.084       .  S
C2869      C2870   1.412       .  A
C2870      C2871   1.510       .  S
C2871      H2875   1.111   1_655  S
C2871      H2876   1.110       .  S
C2871      H2877   1.108       .  S
C2874      H2878   1.108       .  S
C2874      H2879   1.108       .  S
C2874      H2880   1.111       .  S
C2881      C2882   1.408       .  A
C2881      C2886   1.400       .  A
C2881      H2888   1.084       .  S
C2882      C2883   1.417       .  A
C2883      C2884   1.408       .  A
C2883      C2890   1.506       .  S
C2884      C2885   1.405       .  A
C2884      H2889   1.084       .  S
C2885      C2886   1.409       .  A
C2886      C2887   1.506       .  S
C2887      H2891   1.111       .  S
C2887      H2892   1.110       .  S
C2887      H2893   1.102       .  S
C2890      H2894   1.110       .  S
C2890      H2895   1.108       .  S
C2890      H2896   1.111       .  S
C2897      C2898   1.409       .  A
C2897      C2902   1.398       .  A
C2897      H2904   1.084       .  S
C2898      C2899   1.416       .  A
C2899      C2900   1.405       .  A
C2899      C2906   1.507       .  S
C2900      C2901   1.404       .  A
C2900      H2905   1.084       .  S
C2901      C2902   1.407       .  A
C2902      C2903   1.509       .  S
C2903      H2907   1.111       .  S
C2903      H2908   1.108       .  S
C2903      H2909   1.110       .  S
C2906      H2910   1.110       .  S
C2906      H2911   1.110       .  S
C2906      H2912   1.111       .  S
C2913      C2914   1.405       .  A
C2913      C2918   1.406       .  A
C2913      H2920   1.084       .  S
C2914      C2915   1.408       .  A
C2915      C2916   1.400       .  A
C2915      C2922   1.508       .  S
C2916      C2917   1.409       .  A
C2916      H2921   1.084       .  S
C2917      C2918   1.415       .  A
C2918      C2919   1.506       .  S
C2919      H2923   1.111       .  S
C2919      H2924   1.110       .  S
C2919      H2925   1.110       .  S
C2922      H2926   1.109       .  S
C2922      H2927   1.111       .  S
C2922      H2928   1.111       .  S
C2929      C2930   1.396       .  A
C2929      C2934   1.401       .  A
C2929      H2936   1.084       .  S
C2930      C2931   1.413       .  A
C2931      C2932   1.403       .  A
C2931      C2938   1.508       .  S
C2932      C2933   1.404       .  A
C2932      H2937   1.084       .  S
C2933      C2934   1.422       .  A
C2934      C2935   1.510       .  S
C2935      H2939   1.111       .  S
C2935      H2940   1.111       .  S
C2935      H2941   1.109       .  S
C2938      H2942   1.109       .  S
C2938      H2943   1.110       .  S
C2938      H2944   1.111       .  S
C2945      C2950   1.405       .  A
C2945      H2952   1.084       .  S
C2946      C2947   1.413       .  A
C2947      C2948   1.403       .  A
C2947      C2954   1.509       .  S
C2948      C2949   1.413       .  A
C2948      H2953   1.082       .  S
C2950      C2951   1.508       .  S
C2951      H2955   1.109       .  S
C2951      H2956   1.109       .  S
C2951      H2957   1.107       .  S
C2954      H2958   1.107       .  S
C2954      H2959   1.111   1_655  S
C2954      H2960   1.111       .  S
C2961      C2962   1.404       .  A
C2961      C2966   1.409       .  A
C2961      H2968   1.084       .  S
C2962      C2963   1.410       .  A
C2963      C2964   1.397       .  A
C2963      C2970   1.508       .  S
C2964      C2965   1.403       .  A
C2964      H2969   1.085       .  S
C2965      C2966   1.413       .  A
C2966      C2967   1.505       .  S
C2967      H2971   1.111       .  S
C2967      H2972   1.111       .  S
C2967      H2973   1.110       .  S
C2970      H2974   1.110       .  S
C2970      H2975   1.110       .  S
C2970      H2976   1.111       .  S
