geometry optimzed in LAMMPS
_audit_creation_date              2020-11-30 
_audit_creation_method            'lammps2cif' 
_symmetry_space_group_name_H-M    'P1' 
_symmetry_Int_Tables_number       1 
_symmetry_cell_setting            triclinic 
loop_ 
_symmetry_equiv_pos_as_xyz 
  x,y,z 
_cell_length_a                    31.33383396 
_cell_length_b                    31.118807147423674 
_cell_length_c                    92.59646270529322 
_cell_angle_alpha                 89.6170303557787 
_cell_angle_beta                  90.18989733601394 
_cell_angle_gamma                 89.60647322989615 
loop_ 
_atom_site_label 
_atom_site_type_symbol 
_atom_site_fract_x 
_atom_site_fract_y 
_atom_site_fract_z 
_atom_site_charge 
C1          C  0.75972311  0.02150632  0.35474157     0.80100
N2          N  0.78249383  0.01272025  0.36687470    -0.78200
C3          C  0.77614418  0.03492025  0.37924587     0.82500
N4          N  0.74608863  0.06679898  0.37944820    -0.78200
C5          C  0.72275251  0.07603498  0.36733704     0.82600
N6          N  0.72977256  0.05330232  0.35503653    -0.79900
O7          O  0.79644432  0.66052616  0.21955698    -0.73100
O8          O  0.79487697  0.74838356  0.25079423    -0.74100
O9          O  0.79234132  0.75226350  0.22022536    -0.62700
O10         O  0.80060919  0.65682203  0.25020195    -0.71100
O11         O  0.87105997  0.66189134  0.24931123    -0.70600
O12         O  0.86302988  0.75388664  0.21946138    -0.61900
O13         O  0.86537984  0.75305154  0.25011926    -0.74400
O14         O  0.86706889  0.66264466  0.21875836    -0.73200
Cu15       Cu  0.79359761  0.70437946  0.23521496     1.04600
Cu16       Cu  0.86904896  0.70800505  0.23438386     1.04300
C17         C  0.83167182  0.64716395  0.21427910     0.93100
C18         C  0.82946752  0.76498434  0.25537820     0.92300
C19         C  0.82685609  0.76812247  0.21516556     0.84400
C20         C  0.83766047  0.64431900  0.25443351     0.90700
C21         C  0.87893554  0.38191980  0.35445172     0.80100
N22         N  0.90998558  0.35121428  0.35366114    -0.78200
C23         C  0.92059023  0.32726985  0.36550628     0.82500
N24         N  0.90011986  0.33434891  0.37820691    -0.78200
C25         C  0.86922512  0.36507703  0.37917311     0.82600
N26         N  0.85887359  0.38856855  0.36724009    -0.79900
C27         C  0.78570364  0.36576336  0.12054971     0.80100
N28         N  0.75654971  0.33353080  0.12029085    -0.78200
C29         C  0.75318208  0.30770629  0.10850747     0.82500
N30         N  0.77905087  0.31445729  0.09690710    -0.78200
C31         C  0.80835638  0.34652348  0.09709318     0.82600
N32         N  0.81127181  0.37173569  0.10893808    -0.79900
C33         C  0.82804012  0.05229432  0.12239335     0.80100
N34         N  0.80452853  0.04836195  0.11015511    -0.78200
C35         C  0.81495530  0.07004258  0.09791913     0.82500
N36         N  0.84945988  0.09643367  0.09797604    -0.78200
C37         C  0.87298612  0.10127176  0.11028413     0.82600
N38         N  0.86230414  0.07886409  0.12238399    -0.79900
C39         C  0.60479441  0.95307602  0.99454364     0.02100
C40         C  0.57270350  0.98521275  0.99553437     0.02100
C41         C  0.53605410  0.98262020  0.98683478    -0.18400
C42         C  0.53155835  0.94930614  0.97678520     0.02100
C43         C  0.56505233  0.91887225  0.97510946     0.02100
C44         C  0.60104385  0.92056215  0.98419221    -0.18400
H45         H  0.62623549  0.89675167  0.98314318     0.04200
H46         H  0.51094504  0.00651048  0.98791645     0.04200
C47         C  0.26363049  0.87158077  0.85583275     0.80100
N48         N  0.28481339  0.87936566  0.86834929    -0.78200
C49         C  0.27735141  0.85592612  0.88047130     0.82500
N50         N  0.24804782  0.82394024  0.88000021    -0.78200
C51         C  0.22635780  0.81566254  0.86756607     0.82600
N52         N  0.23420457  0.83959817  0.85549744    -0.79900
C53         C  0.37857730  0.51263441  0.85508746     0.80100
N54         N  0.40862038  0.54397312  0.85495905    -0.78200
C55         C  0.41547545  0.56834121  0.86689440     0.82500
N56         N  0.39202749  0.56117721  0.87903296    -0.78200
C57         C  0.36192058  0.52984467  0.87927029     0.82600
N58         N  0.35562029  0.50592377  0.86727105    -0.79900
O59         O  0.33732381  0.24635157  0.72225019    -0.73100
O60         O  0.32996791  0.14706207  0.75101007    -0.74100
O61         O  0.33398766  0.15488918  0.72045905    -0.62700
O62         O  0.33522903  0.23811900  0.75275376    -0.71100
O63         O  0.26465203  0.24316251  0.75235666    -0.70600
O64         O  0.26331407  0.15715858  0.71960798    -0.61900
O65         O  0.25943020  0.15204580  0.75011930    -0.74400
O66         O  0.26665169  0.24840234  0.72184946    -0.73200
Cu67       Cu  0.33657803  0.19644236  0.73664094     1.04600
Cu68       Cu  0.26107987  0.20033378  0.73594442     1.04300
C69         C  0.30240316  0.26325699  0.71763803     0.93100
C70         C  0.29314861  0.13393740  0.75503980     0.92300
C71         C  0.29890098  0.14228379  0.71496183     0.84400
C72         C  0.30072358  0.25426080  0.75765328     0.90700
C73         C  0.36649435  0.88071005  0.61731169     0.80100
N74         N  0.39782969  0.85032183  0.61725850    -0.78200
C75         C  0.40667218  0.82790107  0.60506199     0.82500
N76         N  0.38410104  0.83627063  0.59275561    -0.78200
C77         C  0.35266054  0.86671541  0.59266540     0.82600
N78         N  0.34419681  0.88859730  0.60498219    -0.79900
C79         C  0.28898986  0.53317645  0.61954091     0.80100
N80         N  0.25250062  0.55664320  0.61805284    -0.78200
C81         C  0.24311875  0.57715697  0.60538172     0.82500
N82         N  0.27046552  0.57371344  0.59400658    -0.78200
C83         C  0.30722700  0.55036008  0.59544599     0.82600
N84         N  0.31604479  0.53046890  0.60821050    -0.79900
C85         C  0.07324566  0.39012400  0.99457500     0.02100
C86         C  0.04016075  0.42097774  0.99305267     0.02100
C87         C  0.04431703  0.45455181  0.98302806    -0.18400
C88         C  0.08071417  0.45727318  0.97430372     0.02100
C89         C  0.11408572  0.42666447  0.97591586     0.02100
C90         C  0.10987582  0.39302040  0.98597234    -0.18400
H91         H  0.13534132  0.36954214  0.98726289     0.04200
H92         H  0.01871938  0.47789243  0.98174129     0.04200
O93         O  0.77868727  0.73502453  0.71988724    -0.73100
O94         O  0.86968225  0.73770671  0.74966273    -0.74100
O95         O  0.86930730  0.73534316  0.71906655    -0.62700
O96         O  0.77929133  0.73496952  0.75064534    -0.71100
O97         O  0.78217810  0.66381886  0.75095273    -0.70600
O98         O  0.86992927  0.66416904  0.71985820    -0.61900
O99         O  0.87332651  0.66659273  0.75048181    -0.74400
O100        O  0.77888102  0.66382192  0.72012710    -0.73200
Cu101      Cu  0.82412709  0.73817067  0.73480253     1.04600
Cu102      Cu  0.82607054  0.66208994  0.73537338     1.04300
C103        C  0.76425678  0.69958842  0.71515711     0.93100
C104        C  0.88636921  0.70334261  0.75476643     0.92300
C105        C  0.88395796  0.69928331  0.71457242     0.84400
C106        C  0.76676734  0.69889462  0.75582058     0.90700
C107        C  0.50443201  0.63764727  0.85455702     0.80100
N108        N  0.51141700  0.66130467  0.86658788    -0.78200
C109        C  0.48774371  0.65561136  0.87870592     0.82500
N110        N  0.45639954  0.62554564  0.87872478    -0.78200
C111        C  0.44888307  0.60153355  0.86675194     0.82600
N112        N  0.47303804  0.60765411  0.85472045    -0.79900
C113        C  0.14465631  0.73878941  0.85457940     0.80100
N114        N  0.13739817  0.71608650  0.86685344    -0.78200
C115        C  0.15821873  0.72502390  0.87931139     0.82500
N116        N  0.18714648  0.75735976  0.87944780    -0.78200
C117        C  0.19481559  0.78070789  0.86724560     0.82600
N118        N  0.17339728  0.77141031  0.85482335    -0.79900
C119        C  0.49846810  0.76147561  0.61755071     0.80100
N120        N  0.50656569  0.73809298  0.60555579    -0.78200
C121        C  0.48275174  0.74294136  0.59338119     0.82500
N122        N  0.45007492  0.77201507  0.59323676    -0.78200
C123        C  0.44147290  0.79579115  0.60519503     0.82600
N124        N  0.46576421  0.79039384  0.61730431    -0.79900
C125        C  0.14326554  0.63308997  0.61588209     0.80100
N126        N  0.17882199  0.60790983  0.61626034    -0.78200
C127        C  0.20394673  0.60370471  0.60437157     0.82500
N128        N  0.19337624  0.62519806  0.59195227    -0.78200
C129        C  0.15764210  0.65046751  0.59145112     0.82600
N130        N  0.13312804  0.65404577  0.60345754    -0.79900
C131        C  0.96671516  0.16317076  0.12327254     0.80100
N132        N  0.97393500  0.18855462  0.11159112    -0.78200
C133        C  0.94988204  0.18553047  0.09945531     0.82500
N134        N  0.91766594  0.15656669  0.09898355    -0.78200
C135        C  0.90936019  0.13119069  0.11065709     0.82600
N136        N  0.93412415  0.13440584  0.12277753    -0.79900
C137        C  0.66868717  0.23147560  0.11995273     0.80100
N138        N  0.66489877  0.20736086  0.10788088    -0.78200
C139        C  0.68873318  0.21528150  0.09598423     0.82500
N140        N  0.71724109  0.24805688  0.09623540    -0.78200
C141        C  0.72175865  0.27253976  0.10828930     0.82600
N142        N  0.69716239  0.26433160  0.12010417    -0.79900
O143        O  0.27656002  0.23501196  0.21789495    -0.73100
O144        O  0.37288704  0.22757544  0.24753330    -0.74100
O145        O  0.36779370  0.23465582  0.21701606    -0.62700
O146        O  0.28204978  0.23047968  0.24840882    -0.71100
O147        O  0.27882562  0.15952158  0.24702833    -0.70600
O148        O  0.36945191  0.16360437  0.21559990    -0.61900
O149        O  0.37003282  0.15662773  0.24609311    -0.74400
O150        O  0.27765732  0.16401739  0.21632927    -0.73200
Cu151      Cu  0.32484457  0.23435061  0.23273031     1.04600
Cu152      Cu  0.32392401  0.15845710  0.23119164     1.04300
C153        C  0.26159803  0.20023250  0.21258565     0.93100
C154        C  0.38665057  0.19034498  0.25142471     0.92300
C155        C  0.38327066  0.20044667  0.21156149     0.84400
C156        C  0.26636940  0.19494227  0.25268745     0.90700
C157        C  0.00773983  0.25753775  0.35156705     0.80100
N158        N  0.97630687  0.28788356  0.35221232    -0.78200
C159        C  0.95436487  0.29414953  0.36471372     0.82500
N160        N  0.96421165  0.27007488  0.37661838    -0.78200
C161        C  0.99575715  0.23992028  0.37609935     0.82600
N162        N  0.01710734  0.23396495  0.36354784    -0.79900
C163        C  0.63753599  0.15109439  0.35480699     0.80100
N164        N  0.66787776  0.11963884  0.35500929    -0.78200
C165        C  0.68992970  0.11036848  0.36738101     0.82500
N166        N  0.68127616  0.13271642  0.37967321    -0.78200
C167        C  0.65061243  0.16397721  0.37959269     0.82600
N168        N  0.62926394  0.17277520  0.36713561    -0.79900
C169        C  0.05286766  0.93206924  0.46829084     0.02100
C170        C  0.08606234  0.96247246  0.46704652     0.02100
C171        C  0.12258376  0.95832721  0.47575076    -0.18400
C172        C  0.12704691  0.92383371  0.48549824     0.02100
C173        C  0.09391695  0.89318968  0.48670916     0.02100
C174        C  0.05744259  0.89732824  0.47794634    -0.18400
H175        H  0.03184871  0.87426046  0.47901223     0.04200
H176        H  0.14804721  0.98155763  0.47471851     0.04200
C177        C  0.63188427  0.44451085  0.48183220     0.02100
C178        C  0.59996385  0.41234961  0.48188564     0.02100
C179        C  0.56454369  0.41656015  0.49104053    -0.18400
C180        C  0.55993418  0.45261699  0.49992685     0.02100
C181        C  0.59139776  0.48503270  0.49973699     0.02100
C182        C  0.62724175  0.48039094  0.49084186    -0.18400
H183        H  0.65132111  0.50524493  0.49074989     0.04200
H184        H  0.54009250  0.39207463  0.49105866     0.04200
C185        C  0.60174994  0.37594774  0.47165619    -0.03300
C186        C  0.60862706  0.33371128  0.47660015    -0.05900
C187        C  0.61576342  0.30045076  0.46672506    -0.21000
C188        C  0.61534736  0.30881228  0.45178818     0.24700
C189        C  0.60752840  0.35114593  0.44693736    -0.18600
C190        C  0.60049552  0.38419073  0.45676659    -0.08600
C191        C  0.62514875  0.27366263  0.44144282    -0.18800
C192        C  0.60914835  0.27376943  0.42792620    -0.23600
C193        C  0.61956431  0.24179219  0.41658187     0.26700
C194        C  0.59229469  0.23980553  0.40459263    -0.20400
C195        C  0.60210972  0.21373257  0.39288415    -0.10000
C196        C  0.63974173  0.18885445  0.39274885    -0.10600
C197        C  0.66674317  0.18975723  0.40491908    -0.03500
C198        C  0.65684909  0.21615114  0.41673576    -0.18600
H199        H  0.61008179  0.32686040  0.48807265     0.10500
H200        H  0.62202334  0.26823234  0.47074571     0.10500
H201        H  0.60835102  0.35928358  0.43556961     0.10200
H202        H  0.59560010  0.41666258  0.45276726     0.11300
H203        H  0.64500481  0.24706760  0.44515235     0.11400
H204        H  0.58614811  0.29856803  0.42494343     0.13300
H205        H  0.56345081  0.25917682  0.40415049     0.09800
H206        H  0.58025079  0.21364380  0.38380025     0.11900
H207        H  0.69605649  0.17113741  0.40512426     0.08500
H208        H  0.67911344  0.21746710  0.42566908     0.11300
C209        C  0.00751516  0.21371436  0.38898475    -0.03300
C210        C  0.98176122  0.21287644  0.40139416    -0.05900
C211        C  0.99262684  0.18633889  0.41316829    -0.21000
C212        C  0.02926482  0.16007023  0.41274326     0.24700
C213        C  0.05591109  0.16243827  0.40058122    -0.18600
C214        C  0.04500540  0.18862715  0.38884163    -0.08600
C215        C  0.03889518  0.13034683  0.42501814    -0.18800
C216        C  0.06093042  0.09336951  0.42324923    -0.23600
C217        C  0.06920129  0.06128205  0.43489853     0.26700
C218        C  0.07758609  0.01860675  0.43090728    -0.20400
C219        C  0.08447044  0.98685467  0.44138387    -0.10000
C220        C  0.08373039  0.99725257  0.45607917    -0.10600
C221        C  0.07712415  0.04010877  0.46016968    -0.03500
C222        C  0.06970775  0.07195826  0.44966108    -0.18600
H223        H  0.95284778  0.23206539  0.40190768     0.10500
H224        H  0.97184900  0.18557090  0.42249012     0.10500
H225        H  0.08540482  0.14424944  0.40007012     0.10200
H226        H  0.06614126  0.18912519  0.37961489     0.11300
H227        H  0.02496859  0.13765556  0.43544024     0.11400
H228        H  0.07102537  0.08438844  0.41247597     0.13300
H229        H  0.07780933  0.00957447  0.41962857     0.09800
H230        H  0.08946434  0.95390347  0.43805326     0.11900
H231        H  0.07637373  0.04858516  0.47149037     0.08500
H232        H  0.06454311  0.10469774  0.45312887     0.11300
C233        C  0.23354365  0.19588342  0.26420024    -0.03300
C234        C  0.21097410  0.15888271  0.26823583    -0.05900
C235        C  0.17955650  0.16097613  0.27897254    -0.21000
C236        C  0.16986525  0.20006647  0.28580182     0.24700
C237        C  0.19298514  0.23688130  0.28189255    -0.18600
C238        C  0.22419521  0.23481889  0.27119962    -0.08600
C239        C  0.13725413  0.20100057  0.29746714    -0.18800
C240        C  0.11606448  0.23705063  0.30135093    -0.23600
C241        C  0.08602168  0.23959644  0.31376659     0.26700
C242        C  0.05811648  0.27505101  0.31471016    -0.20400
C243        C  0.03165700  0.28043083  0.32674343    -0.10000
C244        C  0.03293323  0.25065316  0.33820740    -0.10600
C245        C  0.06034565  0.21479772  0.33714353    -0.03500
C246        C  0.08660640  0.20934669  0.32512123    -0.18600
H247        H  0.21743848  0.12842507  0.26306706     0.10500
H248        H  0.16261297  0.13200611  0.28191016     0.10500
H249        H  0.18782653  0.26724070  0.28724914     0.10200
H250        H  0.24128511  0.26389957  0.26849925     0.11300
H251        H  0.13008964  0.17071288  0.30274647     0.11400
H252        H  0.12046737  0.26628318  0.29509719     0.13300
H253        H  0.05721691  0.29905388  0.30618442     0.09800
H254        H  0.01108411  0.30848229  0.32722924     0.11900
H255        H  0.06219359  0.19115109  0.34576252     0.02500
H256        H  0.10826766  0.18217554  0.32508829     0.11300
C257        C  0.42206700  0.18529803  0.26206407    -0.03300
C258        C  0.43896677  0.14415145  0.26501607    -0.05900
C259        C  0.47165721  0.13832919  0.27514128    -0.21000
C260        C  0.48829283  0.17330089  0.28274239     0.24700
C261        C  0.47221798  0.21480600  0.27956256    -0.18600
C262        C  0.43941070  0.22067186  0.26933903    -0.08600
C263        C  0.52190293  0.16443780  0.29388292    -0.18800
C264        C  0.53164606  0.19148190  0.30471102    -0.23600
C265        C  0.56135471  0.18080098  0.31691445     0.26700
C266        C  0.56044776  0.20729947  0.32910993    -0.20400
C267        C  0.58561948  0.19791287  0.34121191    -0.10000
C268        C  0.61281038  0.16174474  0.34148105    -0.10600
C269        C  0.61503397  0.13589597  0.32910383    -0.03500
C270        C  0.58964936  0.14528083  0.31693939    -0.18600
H271        H  0.42679825  0.11613146  0.25952662     0.10500
H272        H  0.48351977  0.10608715  0.27721592     0.10500
H273        H  0.48490339  0.24291016  0.28481045     0.10200
H274        H  0.42747790  0.25282957  0.26719707     0.11300
H275        H  0.53660314  0.13283704  0.29368334     0.11400
H276        H  0.51479216  0.22194080  0.30536709     0.13300
H277        H  0.53945482  0.23508753  0.32941471     0.09800
H278        H  0.58333335  0.21895658  0.35044703     0.11900
H279        H  0.63591592  0.10803132  0.32888143     0.08500
H280        H  0.59250032  0.12454852  0.30768071     0.11300
C281        C  0.64079357  0.22200905  0.13250451    -0.03300
C282        C  0.61850652  0.18293979  0.13306594    -0.05900
C283        C  0.58983317  0.17439758  0.14419217    -0.21000
C284        C  0.58211231  0.20479645  0.15497700     0.24700
C285        C  0.60544579  0.24340503  0.15477848    -0.18600
C286        C  0.63456800  0.25187200  0.14364293    -0.08600
C287        C  0.54898604  0.19492149  0.16598327    -0.18800
C288        C  0.52644840  0.22545271  0.17288930    -0.23600
C289        C  0.48940218  0.21661558  0.18251652     0.26700
C290        C  0.46220267  0.25105521  0.18587053    -0.20400
C291        C  0.42717331  0.24520614  0.19490331    -0.10000
C292        C  0.41827968  0.20464709  0.20090997    -0.10600
C293        C  0.44509664  0.16982973  0.19749463    -0.03500
C294        C  0.48048541  0.17573761  0.18844732    -0.18600
H295        H  0.62282012  0.15890558  0.12478129     0.10500
H296        H  0.57271278  0.14426840  0.14414424     0.10500
H297        H  0.60137276  0.26710772  0.16316575     0.10200
H298        H  0.65145374  0.28211493  0.14358694     0.11300
H299        H  0.54032442  0.16147106  0.16730117     0.11400
H300        H  0.53330364  0.25894667  0.17060094     0.13300
H301        H  0.46811519  0.28283922  0.18150259     0.09800
H302        H  0.40724858  0.27279871  0.19731553     0.11900
H303        H  0.43945519  0.13836163  0.20213985     0.08500
H304        H  0.50102478  0.14839890  0.18644995     0.11300
C305        C  0.22484945  0.20116323  0.20233187    -0.03300
C306        C  0.20319204  0.23968885  0.19902025    -0.05900
C307        C  0.16755938  0.23976344  0.18980568    -0.21000
C308        C  0.15245427  0.20138435  0.18375374     0.24700
C309        C  0.17448553  0.16289161  0.18692229    -0.18600
C310        C  0.21008646  0.16281827  0.19611225    -0.08600
C311        C  0.11547139  0.20327440  0.17352827    -0.18800
C312        C  0.09098793  0.16916781  0.17006572    -0.23600
C313        C  0.05670136  0.17043313  0.15877802     0.26700
C314        C  0.02589517  0.13770489  0.15844273    -0.20400
C315        C  0.99555658  0.13585174  0.14725080    -0.10000
C316        C  0.99566232  0.16651994  0.13603124    -0.10600
C317        C  0.02586446  0.19978902  0.13659232    -0.03500
C318        C  0.05597608  0.20166545  0.14772955    -0.18600
H319        H  0.21358435  0.26977001  0.20362184     0.10500
H320        H  0.15159902  0.26999578  0.18743171     0.10500
H321        H  0.16497200  0.13282409  0.18213666     0.10200
H322        H  0.22611540  0.13253528  0.19833088     0.11300
H323        H  0.10795350  0.23451338  0.16887870     0.11400
H324        H  0.09598058  0.13886045  0.17570622     0.13300
H325        H  0.02577136  0.11301020  0.16674490     0.09800
H326        H  0.97288489  0.10974193  0.14717154     0.11900
H327        H  0.02705544  0.22408958  0.12818108     0.08500
H328        H  0.07957978  0.22680045  0.14723978     0.11300
C329        C  0.09623941  0.85820389  0.49767871    -0.03300
C330        C  0.09905372  0.81501786  0.49348796    -0.05900
C331        C  0.10751056  0.78276882  0.50378389    -0.21000
C332        C  0.11264095  0.79310428  0.51843937     0.24700
C333        C  0.10876486  0.83642013  0.52259361    -0.18600
C334        C  0.10021139  0.86844825  0.51234731    -0.08600
C335        C  0.12374819  0.75870136  0.52911726    -0.18800
C336        C  0.11269847  0.76157564  0.54312033    -0.23600
C337        C  0.12374048  0.72952777  0.55454641     0.26700
C338        C  0.09946860  0.73008132  0.56720989    -0.20400
C339        C  0.11004189  0.70361726  0.57888125    -0.10000
C340        C  0.14570818  0.67594593  0.57835528    -0.10600
C341        C  0.16979481  0.67458498  0.56554968    -0.03500
C342        C  0.15890311  0.70113808  0.55371892    -0.18600
H343        H  0.09643677  0.80653181  0.48219916     0.10500
H344        H  0.11055049  0.74973940  0.50028197     0.10500
H345        H  0.11382657  0.84602931  0.53366745     0.10200
H346        H  0.09839534  0.90162627  0.51578618     0.11300
H347        H  0.13998351  0.73008032  0.52525629     0.11400
H348        H  0.09294321  0.78852627  0.54646057     0.13300
H349        H  0.07234101  0.75165045  0.56818116     0.09800
H350        H  0.09050226  0.70569642  0.58847228     0.11900
H351        H  0.19747180  0.65370519  0.56477147     0.08500
H352        H  0.17883622  0.70039522  0.54421019     0.11300
C353        C  0.58685871  0.52383056  0.50885732    -0.03300
C354        C  0.61537717  0.53084751  0.52026853    -0.05900
C355        C  0.60712063  0.56312268  0.53034645    -0.21000
C356        C  0.57009484  0.58875174  0.52926043     0.24700
C357        C  0.54284537  0.58324498  0.51730802    -0.18600
C358        C  0.55132157  0.55118483  0.50718310    -0.08600
C359        C  0.56110816  0.62021988  0.54091681    -0.18800
C360        C  0.52189904  0.63602612  0.54392131    -0.23600
C361        C  0.51308266  0.66434934  0.55648114     0.26700
C362        C  0.47710401  0.69158263  0.55620388    -0.20400
C363        C  0.46726514  0.71762444  0.56805794    -0.10000
C364        C  0.49298106  0.71648351  0.58052940    -0.10600
C365        C  0.52876875  0.68891563  0.58080300    -0.03500
C366        C  0.53860441  0.66311097  0.56899439    -0.18600
H367        H  0.64294622  0.51007082  0.52174915     0.10500
H368        H  0.62892804  0.56700611  0.53933534     0.10500
H369        H  0.51487372  0.60327332  0.51573493     0.10200
H370        H  0.52930474  0.54666272  0.49829474     0.11300
H371        H  0.58792690  0.62916312  0.54766365     0.11400
H372        H  0.49492351  0.62771241  0.53715846     0.13300
H373        H  0.45658573  0.69275664  0.54676916     0.09800
H374        H  0.43935282  0.73827713  0.56749736     0.11900
H375        H  0.54920778  0.68682493  0.59023870     0.08500
H376        H  0.56561586  0.64146294  0.56993213     0.11300
C377        C  0.91735830  0.69729621  0.70323643    -0.03300
C378        C  0.93184035  0.73450194  0.69616525    -0.05900
C379        C  0.96259535  0.73157640  0.68523066    -0.21000
C380        C  0.97986821  0.69155051  0.68124162     0.24700
C381        C  0.96549692  0.65440829  0.68840424    -0.18600
C382        C  0.93478779  0.65730713  0.69925930    -0.08600
C383        C  0.01035344  0.68932051  0.66893255    -0.18800
C384        C  0.03726265  0.65592608  0.66669969    -0.23600
C385        C  0.06480337  0.65175067  0.65368618     0.26700
C386        C  0.10084545  0.62465121  0.65427981    -0.20400
C387        C  0.12642669  0.61848210  0.64207004    -0.10000
C388        C  0.11625727  0.63900929  0.62891561    -0.10600
C389        C  0.07989268  0.66579387  0.62830831    -0.03500
C390        C  0.05445400  0.67202026  0.64050094    -0.18600
H391        H  0.91904521  0.76576758  0.69894464     0.10500
H392        H  0.97274398  0.76067932  0.67979805     0.10500
H393        H  0.97678231  0.62281366  0.68540501     0.10200
H394        H  0.92431697  0.62791118  0.70442967     0.11300
H395        H  0.01071947  0.71652672  0.66154642     0.11400
H396        H  0.03995089  0.63069627  0.67479823     0.13300
H397        H  0.10927174  0.60819221  0.66424387     0.09800
H398        H  0.15408368  0.59756182  0.64294476     0.11900
H399        H  0.07078027  0.68190219  0.61835444     0.08500
H400        H  0.02618516  0.69192002  0.63940873     0.11300
C401        C  0.92106992  0.70743736  0.76558033    -0.03300
C402        C  0.92929127  0.74795240  0.77157318    -0.05900
C403        C  0.96264494  0.75353037  0.78133177    -0.21000
C404        C  0.98866707  0.71882234  0.78549859     0.24700
C405        C  0.98078678  0.67805635  0.77950464    -0.18600
C406        C  0.94711627  0.67242443  0.76965416    -0.08600
C407        C  0.02329189  0.72728287  0.79610861    -0.18800
C408        C  0.04110917  0.69700280  0.80467988    -0.23600
C409        C  0.07049161  0.70756491  0.81679287     0.26700
C410        C  0.07238894  0.67950975  0.82867322    -0.20400
C411        C  0.09693240  0.68950248  0.84078057    -0.10000
C412        C  0.12072106  0.72768983  0.84126609    -0.10600
C413        C  0.12030472  0.75503535  0.82913352    -0.03500
C414        C  0.09548526  0.74508476  0.81700062    -0.18600
H415        H  0.90990129  0.77569229  0.76870931     0.10500
H416        H  0.96790747  0.78521535  0.78574229     0.10500
H417        H  0.00078766  0.65066734  0.78218398     0.10200
H418        H  0.94188892  0.64096719  0.76507826     0.11300
H419        H  0.03136375  0.76069829  0.79784361     0.11400
H420        H  0.03050935  0.66399795  0.80386219     0.13300
H421        H  0.05385073  0.65025327  0.82876474     0.09800
H422        H  0.09684631  0.66733297  0.84984592     0.11900
H423        H  0.13855822  0.78444923  0.82909855     0.08500
H424        H  0.09603691  0.76685965  0.80785214     0.11300
C425        C  0.73443915  0.69701191  0.76753095    -0.03300
C426        C  0.71830950  0.73456715  0.77391678    -0.05900
C427        C  0.68817562  0.73208495  0.78505314    -0.21000
C428        C  0.67314713  0.69211647  0.78997624     0.24700
C429        C  0.68970208  0.65452572  0.78367975    -0.18600
C430        C  0.71980350  0.65700013  0.77259294    -0.08600
C431        C  0.64187801  0.69088587  0.80210224    -0.18800
C432        C  0.61657699  0.65691703  0.80501156    -0.23600
C433        C  0.58672922  0.65443912  0.81752861     0.26700
C434        C  0.55493236  0.62276557  0.81756372    -0.20400
C435        C  0.52769020  0.61767123  0.82941618    -0.10000
C436        C  0.53179900  0.64400409  0.84161242    -0.10600
C437        C  0.56339055  0.67595590  0.84152589    -0.03500
C438        C  0.59057721  0.68104448  0.82969177    -0.18600
H439        H  0.72911575  0.76587014  0.77036687     0.10500
H440        H  0.67645496  0.76156251  0.78982082     0.10500
H441        H  0.68033627  0.62302437  0.78744268     0.10200
H442        H  0.73183276  0.62734432  0.76804238     0.11300
H443        H  0.63902417  0.71970227  0.80855276     0.11400
H444        H  0.61685182  0.62969167  0.79775844     0.13300
H445        H  0.55135382  0.60157034  0.80841009     0.09800
H446        H  0.50384131  0.59267617  0.82909054     0.11900
H447        H  0.56768635  0.69678251  0.85073310     0.08500
H448        H  0.61521382  0.70507442  0.83038251     0.11300
C449        C  0.52590939  0.75570212  0.63055385    -0.03300
C450        C  0.52041666  0.78133658  0.64286836    -0.05900
C451        C  0.54770307  0.77648331  0.65480361    -0.21000
C452        C  0.58065857  0.74561608  0.65477137     0.24700
C453        C  0.58599884  0.71989470  0.64248192    -0.18600
C454        C  0.55893041  0.72481354  0.63056970    -0.08600
C455        C  0.61065404  0.74297622  0.66724484    -0.18800
C456        C  0.63377839  0.70747060  0.67057042    -0.23600
C457        C  0.66642033  0.70603263  0.68227638     0.26700
C458        C  0.67775828  0.66633306  0.68859659    -0.20400
C459        C  0.70947850  0.66383277  0.69930325    -0.10000
C460        C  0.73068647  0.70105418  0.70381282    -0.10600
C461        C  0.71968002  0.74063817  0.69730875    -0.03500
C462        C  0.68813092  0.74311079  0.68665704    -0.18600
H463        H  0.49544840  0.80553337  0.64322329     0.10500
H464        H  0.54318117  0.79705189  0.66407617     0.10500
H465        H  0.61181707  0.69676198  0.64180532     0.10200
H466        H  0.56439716  0.70464499  0.62126266     0.11300
H467        H  0.61313544  0.77118415  0.67402041     0.11400
H468        H  0.62817926  0.67793267  0.66471934     0.13300
H469        H  0.66191729  0.63718910  0.68526699     0.09800
H470        H  0.71731623  0.63286843  0.70405348     0.11900
H471        H  0.73578821  0.76991623  0.70034663     0.08500
H472        H  0.68159913  0.77401503  0.68167754     0.11300
C473        C  0.06971191  0.35620382  0.00572411    -0.03300
C474        C  0.05228453  0.31621165  0.00221758    -0.05900
C475        C  0.03728025  0.28896715  0.01314832    -0.21000
C476        C  0.03912905  0.30160896  0.02767093     0.24700
C477        C  0.05983098  0.34022653  0.03115297    -0.18600
C478        C  0.07481911  0.36729823  0.02025639    -0.08600
C479        C  0.01893638  0.27429090  0.03892784    -0.18800
C480        C  0.00371649  0.29060531  0.05134473    -0.23600
C481        C  0.98691265  0.26382010  0.06329198     0.26700
C482        C  0.99363250  0.27771716  0.07746955    -0.20400
C483        C  0.98076129  0.25255147  0.08915423    -0.10000
C484        C  0.95986767  0.21334414  0.08692390    -0.10600
C485        C  0.95104504  0.20036191  0.07271990    -0.03500
C486        C  0.96478464  0.22525951  0.06096416    -0.18600
H487        H  0.04759786  0.30748553  0.99102435     0.10500
H488        H  0.02216096  0.25905912  0.01021071     0.10500
H489        H  0.06370911  0.35018809  0.04224217     0.10200
H490        H  0.08799891  0.39820605  0.02311629     0.11300
H491        H  0.01627519  0.24013050  0.03685614     0.11400
H492        H  0.00590923  0.32483711  0.05332127     0.13300
H493        H  0.01011633  0.30755280  0.07951853     0.09800
H494        H  0.98755003  0.26366051  0.09998012     0.11900
H495        H  0.93481175  0.17038123  0.07070558     0.08500
H496        H  0.95808848  0.21434952  0.05012215     0.11300
C497        C  0.14889904  0.69935523  0.89246155    -0.03300
C498        C  0.17469256  0.70165663  0.90488465    -0.05900
C499        C  0.16600619  0.67578157  0.91696554    -0.21000
C500        C  0.13154185  0.64713101  0.91682747     0.24700
C501        C  0.10490783  0.64613449  0.90458902    -0.18600
C502        C  0.11369411  0.67159825  0.89255124    -0.08600
C503        C  0.12377408  0.61883766  0.92954357    -0.18800
C504        C  0.10390424  0.58074625  0.92833650    -0.23600
C505        C  0.09628564  0.55064696  0.94052881     0.26700
C506        C  0.08918755  0.50728439  0.93729949    -0.20400
C507        C  0.08244057  0.47737232  0.94830196    -0.10000
C508        C  0.08249660  0.49024795  0.96276886    -0.10600
C509        C  0.08793009  0.53376246  0.96609585    -0.03500
C510        C  0.09482988  0.56386973  0.95504526    -0.18600
H511        H  0.20191005  0.72289382  0.90519398     0.10500
H512        H  0.18668873  0.67756767  0.92633517     0.10500
H513        H  0.07690006  0.62603615  0.90426037     0.10200
H514        H  0.09259630  0.66955373  0.88329904     0.11300
H515        H  0.13683974  0.62852615  0.93987830     0.11400
H516        H  0.09482540  0.56951454  0.91769931     0.13300
H517        H  0.08968036  0.49632691  0.92622268     0.09800
H518        H  0.07820348  0.44387161  0.94556794     0.11900
H519        H  0.08804394  0.54412681  0.97723586     0.08500
H520        H  0.09887731  0.59723041  0.95791130     0.11300
C521        C  0.52249998  0.45646908  0.50956868    -0.03300
C522        C  0.48210198  0.46694959  0.50391803    -0.05900
C523        C  0.44899097  0.47957853  0.51315042    -0.21000
C524        C  0.45594551  0.48214637  0.52811548     0.24700
C525        C  0.49571994  0.46876932  0.53375618    -0.18600
C526        C  0.52864438  0.45624286  0.52456197    -0.08600
C527        C  0.42134881  0.49821916  0.53769151    -0.18800
C528        C  0.42992138  0.51820463  0.55021952    -0.23600
C529        C  0.39739629  0.52905805  0.56123046     0.26700
C530        C  0.41014612  0.52802332  0.57573408    -0.20400
C531        C  0.38086307  0.53580417  0.58669766    -0.10000
C532        C  0.33807611  0.54577667  0.58344944    -0.10600
C533        C  0.32543775  0.54872065  0.56888307    -0.03500
C534        C  0.35483610  0.54005158  0.55782272    -0.18600
H535        H  0.47693425  0.46760795  0.49234838     0.10500
H536        H  0.41844881  0.48896624  0.50856247     0.10500
H537        H  0.50175095  0.46828426  0.54526498     0.10200
H538        H  0.55959813  0.44810272  0.52910007     0.11300
H539        H  0.38848983  0.49291990  0.53444123     0.11400
H540        H  0.46292998  0.52405822  0.55317651     0.13300
H541        H  0.44279207  0.51997445  0.57863564     0.09800
H542        H  0.39178775  0.53368308  0.59778913     0.11900
H543        H  0.29268018  0.55643566  0.56607253     0.08500
H544        H  0.34430806  0.54205115  0.54669675     0.11300
C545        C  0.32844855  0.87735824  0.57926934    -0.03300
C546        C  0.29394082  0.90642560  0.57976905    -0.05900
C547        C  0.27141464  0.91751495  0.56725402    -0.21000
C548        C  0.28255589  0.89997572  0.55385069     0.24700
C549        C  0.31731722  0.87098864  0.55327902    -0.18600
C550        C  0.33986039  0.85972596  0.56587266    -0.08600
C551        C  0.25644569  0.91288453  0.54101458    -0.18800
C552        C  0.25981746  0.89561919  0.52774283    -0.23600
C553        C  0.22971929  0.90646721  0.51575989     0.26700
C554        C  0.22239313  0.87574852  0.50501594    -0.20400
C555        C  0.19090937  0.88261217  0.49450890    -0.10000
C556        C  0.16605390  0.92033725  0.49458370    -0.10600
C557        C  0.17553930  0.95256055  0.50457751    -0.03500
C558        C  0.20717950  0.94580686  0.51506113    -0.18600
H559        H  0.28414121  0.92074965  0.58986377     0.10500
H560        H  0.24491738  0.93991139  0.56809098     0.10500
H561        H  0.32761801  0.85696512  0.54323209     0.10200
H562        H  0.36647408  0.83749987  0.56507887     0.11300
H563        H  0.23137198  0.93638230  0.54292339     0.11400
H564        H  0.28273659  0.87010871  0.52578441     0.13300
H565        H  0.23973668  0.84549434  0.50513639     0.09800
H566        H  0.18444024  0.85757618  0.48675413     0.11900
H567        H  0.15698002  0.98206143  0.50472441     0.08500
H568        H  0.21318726  0.97111406  0.52273084     0.11300
C569        C  0.30209757  0.30033710  0.70743751    -0.03300
C570        C  0.26275208  0.31841152  0.70320732    -0.05900
C571        C  0.26085585  0.35248515  0.69341945    -0.21000
C572        C  0.29810703  0.36980019  0.68748073     0.24700
C573        C  0.33789176  0.35251727  0.69189283    -0.18600
C574        C  0.33979755  0.31806144  0.70180784    -0.08600
C575        C  0.29255477  0.40426430  0.67634682    -0.18800
C576        C  0.32410530  0.42596107  0.66973075    -0.23600
C577        C  0.31550554  0.45703074  0.65769708     0.26700
C578        C  0.34729352  0.46404436  0.64733421    -0.20400
C579        C  0.33904096  0.48967385  0.63515588    -0.10000
C580        C  0.29882986  0.50931731  0.63311640    -0.10600
C581        C  0.26780198  0.50434328  0.64389740    -0.03500
C582        C  0.27606087  0.47868677  0.65607372    -0.18600
H583        H  0.23299201  0.30599199  0.70737021     0.10500
H584        H  0.22978068  0.36503400  0.69032681     0.10500
H585        H  0.36749957  0.36473340  0.68761578     0.10200
H586        H  0.37062413  0.30501405  0.70492340     0.11300
H587        H  0.25993397  0.41064382  0.67298299     0.11400
H588        H  0.35713808  0.41891727  0.67238142     0.13300
H589        H  0.37816144  0.44843711  0.64840208     0.09800
H590        H  0.36399496  0.49335793  0.62718773     0.11900
H591        H  0.23674128  0.51949338  0.64279363     0.08500
H592        H  0.25128514  0.47587371  0.66411843     0.11300
C593        C  0.30031510  0.10989163  0.70331048    -0.03300
C594        C  0.26301130  0.09041056  0.69813225    -0.05900
C595        C  0.26535881  0.05891833  0.68740632    -0.21000
C596        C  0.30496240  0.04610769  0.68172889     0.24700
C597        C  0.34216061  0.06619189  0.68676267    -0.18600
C598        C  0.33983752  0.09748163  0.69745176    -0.08600
C599        C  0.30632438  0.01361356  0.67002873    -0.18800
C600        C  0.34122120  0.98955406  0.66715212    -0.23600
C601        C  0.34464994  0.95982960  0.65468954     0.26700
C602        C  0.37685066  0.92820904  0.65482855    -0.20400
C603        C  0.38332898  0.90172768  0.64287260    -0.10000
C604        C  0.35793187  0.90658042  0.63041669    -0.10600
C605        C  0.32528036  0.93784372  0.63036204    -0.03500
C606        C  0.31878485  0.96424984  0.64231330    -0.18600
H607        H  0.23210099  0.09927205  0.70242420     0.10500
H608        H  0.23616982  0.04435054  0.68357888     0.10500
H609        H  0.37312545  0.05859996  0.68229337     0.10200
H610        H  0.36919822  0.11215974  0.70106961     0.11300
H611        H  0.27732292  0.00906582  0.66381164     0.11400
H612        H  0.36867665  0.99122513  0.67430016     0.13300
H613        H  0.39748075  0.92433606  0.66416879     0.09800
H614        H  0.40881805  0.87807910  0.64329842     0.11900
H615        H  0.30518746  0.94265236  0.62094166     0.08500
H616        H  0.29445098  0.98895821  0.64154885     0.11300
C617        C  0.33650910  0.52068067  0.89245137    -0.03300
C618        C  0.33950629  0.54658308  0.90479107    -0.05900
C619        C  0.31533384  0.53719362  0.91711976    -0.21000
C620        C  0.28817392  0.50144539  0.91746029     0.24700
C621        C  0.28477695  0.47592910  0.90504336    -0.18600
C622        C  0.30865758  0.48538587  0.89274123    -0.08600
C623        C  0.26201346  0.49299764  0.93056042    -0.18800
C624        C  0.24720833  0.45364555  0.93409085    -0.23600
C625        C  0.21701210  0.44511189  0.94615544     0.26700
C626        C  0.19249899  0.40743830  0.94574453    -0.20400
C627        C  0.16078253  0.39988352  0.95603901    -0.10000
C628        C  0.15308940  0.42986604  0.96695647    -0.10600
C629        C  0.17924222  0.46618038  0.96796527    -0.03500
C630        C  0.21102116  0.47374032  0.95770084    -0.18600
H631        H  0.36035588  0.57418334  0.90491548     0.10500
H632        H  0.31803208  0.55778328  0.92646070     0.10500
H633        H  0.26298679  0.44916447  0.90461161     0.10200
H634        H  0.30510255  0.46488373  0.88341627     0.11300
H635        H  0.25435869  0.52042792  0.93724255     0.11400
H636        H  0.25572777  0.42644259  0.92739844     0.13300
H637        H  0.19665802  0.38463676  0.93707028     0.09800
H638        H  0.14069779  0.37186280  0.95502096     0.11900
H639        H  0.17382463  0.48957525  0.97637968     0.08500
H640        H  0.23013482  0.50232524  0.95877291     0.11300
C641        C  0.37094381  0.48528611  0.84226664    -0.03300
C642        C  0.39270126  0.49237913  0.82922189    -0.05900
C643        C  0.38536038  0.46593647  0.81729998    -0.21000
C644        C  0.35587694  0.43221282  0.81811180     0.24700
C645        C  0.33438247  0.42491519  0.83118010    -0.18600
C646        C  0.34175115  0.45117801  0.84307575    -0.08600
C647        C  0.35037195  0.40345094  0.80552347    -0.18800
C648        C  0.31482648  0.38028443  0.80314576    -0.23600
C649        C  0.31141640  0.34852902  0.79130610     0.26700
C650        C  0.27114923  0.33830653  0.78559981    -0.20400
C651        C  0.26722624  0.30757417  0.77467511    -0.10000
C652        C  0.30356639  0.28619547  0.76940521    -0.10600
C653        C  0.34367615  0.29597905  0.77534783    -0.03500
C654        C  0.34756612  0.32659986  0.78617116    -0.18600
H655        H  0.41550859  0.51820560  0.82822800     0.10500
H656        H  0.40276993  0.47183771  0.80739976     0.10500
H657        H  0.31263205  0.39829935  0.83240756     0.10200
H658        H  0.32475592  0.44433369  0.85298333     0.11300
H659        H  0.37645742  0.40187160  0.79784701     0.11400
H660        H  0.28699225  0.38507737  0.80991394     0.13300
H661        H  0.24273730  0.35436023  0.78953586     0.09800
H662        H  0.23589133  0.30067439  0.77034253     0.11900
H663        H  0.37233110  0.27981440  0.77167390     0.08500
H664        H  0.37889245  0.33231157  0.79068095     0.11300
C665        C  0.27285996  0.89831778  0.84285354    -0.03300
C666        C  0.30673898  0.92772766  0.84316823    -0.05900
C667        C  0.31494825  0.95444803  0.83135824    -0.21000
C668        C  0.28943056  0.95293772  0.81890982     0.24700
C669        C  0.25621677  0.92260246  0.81834295    -0.18600
C670        C  0.24803443  0.89561062  0.83021088    -0.08600
C671        C  0.29879821  0.98389913  0.80698699    -0.18800
C672        C  0.27063505  0.99519338  0.79658000    -0.23600
C673        C  0.27836034  0.02982503  0.78568431     0.26700
C674        C  0.24297660  0.04780466  0.77849496    -0.20400
C675        C  0.24799889  0.08132051  0.76855667    -0.10000
C676        C  0.28870934  0.09766461  0.76542133    -0.10600
C677        C  0.32438756  0.07910038  0.77232152    -0.03500
C678        C  0.31934700  0.04547323  0.78232624    -0.18600
H679        H  0.32693601  0.93049122  0.85262539     0.10500
H680        H  0.34098399  0.97706355  0.83208172     0.10500
H681        H  0.23656076  0.91934552  0.80880192     0.10200
H682        H  0.22198657  0.87301806  0.82953759     0.11300
H683        H  0.32905662  0.00046751  0.80759673     0.11400
H684        H  0.23915216  0.98094480  0.79661940     0.13300
H685        H  0.21110327  0.03629919  0.78073187     0.09800
H686        H  0.21976913  0.09454090  0.76335896     0.11900
H687        H  0.35618875  0.09067928  0.77004420     0.08500
H688        H  0.34770451  0.03180058  0.78724207     0.11300
C689        C  0.56343445  0.88694422  0.96328898    -0.03300
C690        C  0.56211584  0.90133147  0.94891192    -0.05900
C691        C  0.55507920  0.87249593  0.93769511    -0.21000
C692        C  0.54895038  0.82861846  0.94056854     0.24700
C693        C  0.55166648  0.81389487  0.95497962    -0.18600
C694        C  0.55896102  0.84291669  0.96624928    -0.08600
C695        C  0.54101063  0.79971692  0.92811097    -0.18800
C696        C  0.52256772  0.76073379  0.92904599    -0.23600
C697        C  0.51434698  0.73353790  0.91613017     0.26700
C698        C  0.48185908  0.70263175  0.91657423    -0.20400
C699        C  0.47300852  0.67718076  0.90448836    -0.10000
C700        C  0.49675747  0.68191806  0.89171107    -0.10600
C701        C  0.52987940  0.71218908  0.89142681    -0.03500
C702        C  0.53872991  0.73742529  0.90346213    -0.18600
H703        H  0.56544283  0.93520341  0.94641792     0.10500
H704        H  0.55358390  0.88471543  0.92672004     0.10500
H705        H  0.54829657  0.78017608  0.95760441     0.10200
H706        H  0.55974448  0.83128664  0.97729512     0.11300
H707        H  0.54868786  0.81261109  0.91752518     0.11400
H708        H  0.51107206  0.74921767  0.93940594     0.13300
H709        H  0.46290388  0.69854096  0.92624520     0.09800
H710        H  0.44749585  0.65396269  0.90514776     0.11900
H711        H  0.54931483  0.71642046  0.88188018     0.08500
H712        H  0.56519128  0.75946204  0.90280063     0.11300
C713        C  0.68175245  0.18926239  0.08279607    -0.03300
C714        C  0.69874397  0.20166466  0.06937972    -0.05900
C715        C  0.68879976  0.17865686  0.05685492    -0.21000
C716        C  0.66139122  0.14314942  0.05746056     0.24700
C717        C  0.64601104  0.12961313  0.07096946    -0.18600
C718        C  0.65600516  0.15240932  0.08345422    -0.08600
C719        C  0.65000054  0.12033647  0.04392584    -0.18800
C720        C  0.61222334  0.10034541  0.04211346    -0.23600
C721        C  0.59975885  0.07546020  0.02905462     0.26700
C722        C  0.56330238  0.04937389  0.02982517    -0.20400
C723        C  0.55231621  0.02229979  0.01840476    -0.10000
C724        C  0.57751591  0.02095880  0.00595229    -0.10600
C725        C  0.61207810  0.04920429  0.00468384    -0.03500
C726        C  0.62329283  0.07606112  0.01611789    -0.18600
H727        H  0.71888393  0.22968942  0.06849099     0.10500
H728        H  0.70166388  0.18928164  0.04660182     0.10500
H729        H  0.62642557  0.10124992  0.07196694     0.10200
H730        H  0.64307338  0.14128944  0.09363416     0.11300
H731        H  0.67323695  0.12104984  0.03530621     0.11400
H732        H  0.58917560  0.10138686  0.05083114     0.13300
H733        H  0.54423344  0.04854683  0.03955706     0.09800
H734        H  0.52572188  0.00055070  0.01963956     0.11900
H735        H  0.63178550  0.04875435  0.99509742     0.08500
H736        H  0.65081467  0.09634995  0.01476500     0.11300
C737        C  0.30156915  0.86523609  0.89392198    -0.03300
C738        C  0.29939350  0.83788459  0.90604416    -0.05900
C739        C  0.32379671  0.84622636  0.91841857    -0.21000
C740        C  0.35038585  0.88236707  0.91905758     0.24700
C741        C  0.35232314  0.90984584  0.90695779    -0.18600
C742        C  0.32819826  0.90140792  0.89459040    -0.08600
C743        C  0.37791399  0.88873879  0.93201996    -0.18800
C744        C  0.39361245  0.92732771  0.93592064    -0.23600
C745        C  0.42529943  0.93383241  0.94777654     0.26700
C746        C  0.44774203  0.97283445  0.94819922    -0.20400
C747        C  0.48076763  0.97900301  0.95818621    -0.10000
C748        C  0.49193581  0.94625933  0.96797943    -0.10600
C749        C  0.46776000  0.90842754  0.96825210    -0.03500
C750        C  0.43482122  0.90216977  0.95827011    -0.18600
H751        H  0.27941431  0.80963277  0.90589610     0.10500
H752        H  0.32206890  0.82422608  0.92751324     0.10500
H753        H  0.37344018  0.93718056  0.90676036     0.10200
H754        H  0.33090500  0.92312741  0.88545657     0.11300
H755        H  0.38591200  0.86018902  0.93824716     0.11400
H756        H  0.38443900  0.95563555  0.92971405     0.13300
H757        H  0.44085199  0.99802340  0.94038961     0.09800
H758        H  0.49898044  0.00844414  0.95779117     0.11900
H759        H  0.47547958  0.88301634  0.97589223     0.08500
H760        H  0.41757768  0.87226909  0.95877613     0.11300
C761        C  0.64128736  0.95335843  0.00479585    -0.03300
C762        C  0.68104552  0.96948999  0.00050570    -0.05900
C763        C  0.71082435  0.98259992  0.01091407    -0.21000
C764        C  0.70094184  0.98019490  0.02569027     0.24700
C765        C  0.66276851  0.96022324  0.02990133    -0.18600
C766        C  0.63330826  0.94687864  0.01954617    -0.08600
C767        C  0.72999381  0.99968854  0.03654624    -0.18800
C768        C  0.71467929  0.01922406  0.04844897    -0.23600
C769        C  0.74125608  0.03650094  0.06042380     0.26700
C770        C  0.72172494  0.04220339  0.07389986    -0.20400
C771        C  0.74551290  0.05475956  0.08590158    -0.10000
C772        C  0.78936575  0.06288751  0.08468302    -0.10600
C773        C  0.80863528  0.05988982  0.07103964    -0.03500
C774        C  0.78486330  0.04651880  0.05900152    -0.18600
H775        H  0.68761205  0.97509903  0.98917307     0.10500
H776        H  0.74036556  0.99714638  0.00741718     0.10500
H777        H  0.65493839  0.95622150  0.04120750     0.10200
H778        H  0.60280861  0.93447649  0.02305665     0.11300
H779        H  0.76400307  0.99848659  0.03449705     0.11400
H780        H  0.68033037  0.02094538  0.04989621     0.13300
H781        H  0.68813210  0.03538540  0.07529090     0.09800
H782        H  0.72972449  0.05725129  0.09625787     0.11900
H783        H  0.84240533  0.06602340  0.06981899     0.08500
H784        H  0.80084992  0.04372675  0.04871953     0.11300
C785        C  0.00143124  0.41787975  0.00211322    -0.03300
C786        C  0.97188363  0.38500222  0.99966537    -0.05900
C787        C  0.94116170  0.37509230  0.01007998    -0.21000
C788        C  0.93979842  0.39757332  0.02315953     0.24700
C789        C  0.96754438  0.43256113  0.02510412    -0.18600
C790        C  0.99816124  0.44251023  0.01466703    -0.08600
C791        C  0.90980530  0.38335324  0.03464579    -0.18800
C792        C  0.91862812  0.38814752  0.04879246    -0.23600
C793        C  0.88969393  0.37559769  0.06078327     0.26700
C794        C  0.89559280  0.39546683  0.07416601    -0.20400
C795        C  0.86942531  0.38562067  0.08585233    -0.10000
C796        C  0.83671529  0.35513352  0.08456612    -0.10600
C797        C  0.83132676  0.33424379  0.07125460    -0.03500
C798        C  0.85752895  0.34441244  0.05944602    -0.18600
H799        H  0.97420782  0.36547514  0.99006053     0.10500
H800        H  0.91981083  0.34843108  0.00822452     0.10500
H801        H  0.96629717  0.45177931  0.03478396     0.10200
H802        H  0.02086214  0.46785377  0.01675068     0.11300
H803        H  0.88069142  0.36750453  0.03131415     0.11400
H804        H  0.94842768  0.40317957  0.05188806     0.13300
H805        H  0.92031509  0.41926822  0.07555732     0.09800
H806        H  0.87491071  0.40219935  0.09592777     0.11900
H807        H  0.80667461  0.31037918  0.06991990     0.08500
H808        H  0.85275919  0.32748367  0.04941388     0.11300
C809        C  0.84701832  0.37313334  0.39306878    -0.03300
C810        C  0.85565706  0.34757436  0.40532930    -0.05900
C811        C  0.83394484  0.35472775  0.41829012    -0.21000
C812        C  0.80346668  0.38782565  0.41938340     0.24700
C813        C  0.79491595  0.41354495  0.40713352    -0.18600
C814        C  0.81649098  0.40631600  0.39416664    -0.08600
C815        C  0.77909385  0.39247360  0.43307956    -0.18800
C816        C  0.75955104  0.42929679  0.43707162    -0.23600
C817        C  0.73076853  0.43364411  0.44981116     0.26700
C818        C  0.70639914  0.47153538  0.45105376    -0.20400
C819        C  0.67575501  0.47583546  0.46189636    -0.10000
C820        C  0.66884477  0.44235161  0.47180127    -0.10600
C821        C  0.69503111  0.40558316  0.47122432    -0.03500
C822        C  0.72552696  0.40108298  0.46031477    -0.18600
H823        H  0.87886186  0.32168168  0.40489232     0.10500
H824        H  0.84084321  0.33413480  0.42750071     0.10500
H825        H  0.77067495  0.43843346  0.40732413     0.10200
H826        H  0.80879466  0.42652697  0.38494011     0.11300
H827        H  0.77702968  0.36404803  0.43984868     0.11400
H828        H  0.76334665  0.45770933  0.43034536     0.13300
H829        H  0.70992853  0.49737406  0.44326197     0.09800
H830        H  0.65606140  0.50456721  0.46214244     0.11900
H831        H  0.69090586  0.37971876  0.47896245     0.08500
H832        H  0.74420113  0.37179477  0.46015719     0.11300
C833        C  0.82582213  0.80352485  0.20442159    -0.03300
C834        C  0.86279770  0.81309980  0.19652648    -0.05900
C835        C  0.86348251  0.84789564  0.18698484    -0.21000
C836        C  0.82729511  0.87406982  0.18504729     0.24700
C837        C  0.78999676  0.86445279  0.19286155    -0.18600
C838        C  0.78925482  0.82929716  0.20241511    -0.08600
C839        C  0.83083244  0.91151201  0.17509607    -0.18800
C840        C  0.79743010  0.93234692  0.16904023    -0.23600
C841        C  0.80346143  0.96678562  0.15806645     0.26700
C842        C  0.77367233  0.97126553  0.14682459    -0.20400
C843        C  0.78089780  0.00013372  0.13547451    -0.10000
C844        C  0.81789500  0.02555099  0.13523669    -0.10600
C845        C  0.84627410  0.02305977  0.14699886    -0.03500
C846        C  0.83912813  0.99403019  0.15830445    -0.18600
H847        H  0.89149414  0.79380010  0.19778838     0.10500
H848        H  0.89260902  0.85450695  0.18112606     0.10500
H849        H  0.76172684  0.88441511  0.19192564     0.10200
H850        H  0.76049850  0.82296131  0.20849744     0.11300
H851        H  0.86286976  0.92048731  0.17187249     0.11400
H852        H  0.76518842  0.92134959  0.17102456     0.13300
H853        H  0.74563907  0.95110832  0.14651064     0.09800
H854        H  0.75800915  0.00164959  0.12669387     0.11900
H855        H  0.87474728  0.04256588  0.14727882     0.08500
H856        H  0.86189597  0.99258658  0.16711106     0.11300
C857        C  0.83091982  0.61324993  0.20306634    -0.03300
C858        C  0.86885400  0.59669544  0.19719716    -0.05900
C859        C  0.86757814  0.56413368  0.18682684    -0.21000
C860        C  0.82846187  0.54716480  0.18212913     0.24700
C861        C  0.79047412  0.56422472  0.18787704    -0.18600
C862        C  0.79176057  0.59666575  0.19824173    -0.08600
C863        C  0.82875638  0.51318868  0.17082367    -0.18800
C864        C  0.79510938  0.48784755  0.16771652    -0.23600
C865        C  0.79486124  0.45535289  0.15592124     0.26700
C866        C  0.76273782  0.42398253  0.15576561    -0.20400
C867        C  0.76005664  0.39419771  0.14450324    -0.10000
C868        C  0.78933515  0.39534399  0.13304692    -0.10600
C869        C  0.82169367  0.42650048  0.13328643    -0.03500
C870        C  0.82434034  0.45618875  0.14449558    -0.18600
H871        H  0.89954975  0.60879967  0.20063779     0.10500
H872        H  0.89735120  0.55203217  0.18248736     0.10500
H873        H  0.75954945  0.55337001  0.18428430     0.10200
H874        H  0.76187002  0.60887939  0.20244346     0.11300
H875        H  0.85857250  0.50843561  0.16513581     0.11400
H876        H  0.76648062  0.49008702  0.17421610     0.13300
H877        H  0.73935046  0.42272163  0.16434697     0.09800
H878        H  0.73463810  0.37081088  0.14465543     0.11900
H879        H  0.84480206  0.42856570  0.12464128     0.08500
H880        H  0.84886090  0.48034392  0.14384272     0.11300
C881        C  0.84287377  0.60918365  0.26520458    -0.03300
C882        C  0.88406054  0.59745239  0.26991769    -0.05900
C883        C  0.89005113  0.56414293  0.27986377    -0.21000
C884        C  0.85513841  0.54176789  0.28549570     0.24700
C885        C  0.81374734  0.55302669  0.28070607    -0.18600
C886        C  0.80771417  0.58653686  0.27066970    -0.08600
C887        C  0.86391148  0.50710870  0.29626910    -0.18800
C888        C  0.83513960  0.49278523  0.30590036    -0.23600
C889        C  0.84623135  0.46225980  0.31780785     0.26700
C890        C  0.82120715  0.46262076  0.33033078    -0.20400
C891        C  0.83164348  0.43631685  0.34212416    -0.10000
C892        C  0.86721021  0.40852599  0.34163895    -0.10600
C893        C  0.89151116  0.40703362  0.32891134    -0.03500
C894        C  0.88112679  0.43352834  0.31710756    -0.18600
H895        H  0.91194911  0.61403183  0.26591637     0.10500
H896        H  0.92224287  0.55611524  0.28329054     0.10500
H897        H  0.78604581  0.53582112  0.28449106     0.10200
H898        H  0.77563750  0.59450203  0.26712671     0.11300
H899        H  0.89665778  0.49574247  0.29705251     0.11400
H900        H  0.80331940  0.50674726  0.30596749     0.13300
H901        H  0.79395292  0.48407034  0.33112723     0.09800
H902        H  0.81188434  0.43805070  0.35167799     0.11900
H903        H  0.91885112  0.38572778  0.32810647     0.08500
H904        H  0.90041232  0.43114624  0.30747861     0.11300
C905        C  0.80282153  0.02425065  0.39211042    -0.03300
C906        C  0.80220730  0.04970809  0.40459078    -0.05900
C907        C  0.82967516  0.04026331  0.41620586    -0.21000
C908        C  0.85787051  0.00493899  0.41567376     0.24700
C909        C  0.85804607  0.97927375  0.40324251    -0.18600
C910        C  0.83082219  0.98870167  0.39168581    -0.08600
C911        C  0.88882680  0.99759569  0.42770757    -0.18800
C912        C  0.90751649  0.95911294  0.43046540    -0.23600
C913        C  0.94235410  0.95177812  0.44124186     0.26700
C914        C  0.96614574  0.91332763  0.44050580    -0.20400
C915        C  0.00108811  0.90605253  0.44967640    -0.10000
C916        C  0.01289506  0.93711593  0.45978250    -0.10600
C917        C  0.98803925  0.97459654  0.46105610    -0.03500
C918        C  0.95315972  0.98196354  0.45189439    -0.18600
H919        H  0.78120071  0.07739129  0.40527201     0.10500
H920        H  0.82919454  0.06084970  0.42558803     0.10500
H921        H  0.88017204  0.95271448  0.40209666     0.10200
H922        H  0.83242542  0.96834984  0.38226352     0.11300
H923        H  0.89685549  0.02531884  0.43414245     0.11400
H924        H  0.89816950  0.93153751  0.42412884     0.13300
H925        H  0.95843769  0.88932058  0.43251415     0.09800
H926        H  0.01983915  0.87690454  0.44853368     0.11900
H927        H  0.99624921  0.99863087  0.46897969     0.08500
H928        H  0.93518891  0.01138390  0.45324092     0.11300
C929        C  0.76761712  0.99599931  0.34148613    -0.03300
C930        C  0.74507731  0.00443188  0.32861963    -0.05900
C931        C  0.75192348  0.97910559  0.31637877    -0.21000
C932        C  0.78160827  0.94502830  0.31666353     0.24700
C933        C  0.80439096  0.93681918  0.32951051    -0.18600
C934        C  0.79758534  0.96207351  0.34171757    -0.08600
C935        C  0.78566079  0.91699158  0.30375236    -0.18800
C936        C  0.81947710  0.89099067  0.30123545    -0.23600
C937        C  0.82148214  0.86024678  0.28898430     0.26700
C938        C  0.86141363  0.84492843  0.28432794    -0.20400
C939        C  0.86432267  0.81440158  0.27329819    -0.10000
C940        C  0.82722926  0.79813280  0.26681778    -0.10600
C941        C  0.78730285  0.81342851  0.27151405    -0.03500
C942        C  0.78441115  0.84395580  0.28246390    -0.18600
H943        H  0.72179354  0.03026386  0.32803660     0.10500
H944        H  0.73365626  0.98593860  0.30667014     0.10500
H945        H  0.82656334  0.91015765  0.33039487     0.10200
H946        H  0.81542633  0.95438636  0.35144232     0.11300
H947        H  0.75975336  0.91839240  0.29596032     0.11400
H948        H  0.84723750  0.89250224  0.30823607     0.13300
H949        H  0.89047089  0.85654267  0.28927316     0.09800
H950        H  0.89554566  0.80319211  0.26997388     0.11900
H951        H  0.75803058  0.80147474  0.26681830     0.08500
H952        H  0.75299139  0.85366908  0.28602243     0.11300
loop_ 
_geom_bond_atom_site_label_1 
_geom_bond_atom_site_label_2 
_geom_bond_distance 
_geom_bond_site_symmetry_2 
_ccdc_geom_bond_type 
C1            N2   1.354       .  A
C1            N6   1.360       .  A
C1          C929   1.487   1_545  S
N2            C3   1.356       .  A
C3            N4   1.363       .  A
C3          C905   1.487       .  S
N4            C5   1.365       .  A
C5            N6   1.362       .  A
C5          C165   1.478       .  S
O7          Cu15   2.000       .  S
O7           C17   1.277       .  A
O8          Cu15   1.996       .  S
O8           C18   1.276       .  A
O9          Cu15   2.030       .  S
O9           C19   1.281       .  A
O10         Cu15   2.032       .  S
O10          C20   1.281       .  A
O11         Cu16   1.986       .  S
O11          C20   1.276       .  A
O12         Cu16   1.988       .  S
O12          C19   1.276       .  A
O13         Cu16   2.032       .  S
O13          C18   1.281       .  A
O14         Cu16   2.029       .  S
O14          C17   1.281       .  A
Cu15        Cu16   2.369       .  S
C17         C857   1.486       .  S
C18         C940   1.485       .  S
C19         C833   1.480       .  S
C20         C881   1.483       .  S
C21          N22   1.361       .  A
C21          N26   1.359       .  A
C21         C892   1.486       .  S
N22          C23   1.361       .  A
C23          N24   1.360       .  A
C23         C159   1.475       .  S
N24          C25   1.360       .  A
C25          N26   1.358       .  A
C25         C809   1.487       .  S
C27          N28   1.362       .  A
C27          N32   1.356       .  A
C27         C868   1.488       .  S
N28          C29   1.364       .  A
C29          N30   1.364       .  A
C29         C141   1.477       .  S
N30          C31   1.361       .  A
C31          N32   1.356       .  A
C31         C796   1.488       .  S
C33          N34   1.356       .  A
C33          N38   1.360       .  A
C33         C844   1.484       .  S
N34          C35   1.357       .  A
C35          N36   1.362       .  A
C35         C772   1.481       .  S
N36          C37   1.365       .  A
C37          N38   1.360       .  A
C37         C135   1.477       .  S
C39         C761   1.484   1_556  S
C39          C40   1.417       .  A
C39          C44   1.404       .  A
C40         C724   1.485   1_566  S
C40          C41   1.404       .  A
C41          C42   1.405       .  A
C41          H46   1.084   1_565  S
C42         C748   1.487       .  S
C42          C43   1.418       .  A
C43         C689   1.484       .  S
C43          C44   1.406       .  A
C44          H45   1.084       .  S
C47          N48   1.358       .  A
C47          N52   1.362       .  A
C47         C665   1.487       .  S
N48          C49   1.356       .  A
C49          N50   1.360       .  A
C49         C737   1.487       .  S
N50          C51   1.362       .  A
C51          N52   1.363       .  A
C51         C117   1.475       .  S
C53          N54   1.360       .  A
C53          N58   1.356       .  A
C53         C641   1.485       .  S
N54          C55   1.362       .  A
C55          N56   1.363       .  A
C55         C111   1.476       .  S
N56          C57   1.361       .  A
C57          N58   1.356       .  A
C57         C617   1.487       .  S
O59         Cu67   2.040       .  S
O59          C69   1.282       .  A
O60         Cu67   2.038       .  S
O60          C70   1.282       .  A
O61         Cu67   1.988       .  S
O61          C71   1.275       .  A
O62         Cu67   1.984       .  S
O62          C72   1.275       .  A
O63         Cu68   2.031       .  S
O63          C72   1.281       .  A
O64         Cu68   2.031       .  S
O64          C71   1.281       .  A
O65         Cu68   1.990       .  S
O65          C70   1.275       .  A
O66         Cu68   1.988       .  S
O66          C69   1.276       .  A
Cu67        Cu68   2.369       .  S
C69         C569   1.486       .  S
C70         C676   1.485       .  S
C71         C593   1.482       .  S
C72         C652   1.481       .  S
C73          N74   1.359       .  A
C73          N78   1.357       .  A
C73         C604   1.485       .  S
N74          C75   1.360       .  A
C75          N76   1.362       .  A
C75         C123   1.474       .  S
N76          C77   1.362       .  A
C77          N78   1.358       .  A
C77         C545   1.486       .  S
C79          N80   1.359       .  A
C79          N84   1.354       .  A
C79         C580   1.486       .  S
N80          C81   1.362       .  A
C81          N82   1.364       .  A
C81         C127   1.477       .  S
N82          C83   1.363       .  A
C83          N84   1.357       .  A
C83         C532   1.482       .  S
C85         C473   1.476   1_556  S
C85          C86   1.414       .  A
C85          C90   1.402       .  A
C86         C785   1.481   1_556  S
C86          C87   1.400       .  A
C87          C88   1.402       .  A
C87          H92   1.084       .  S
C88         C508   1.478       .  S
C88          C89   1.416       .  A
C89         C628   1.483       .  S
C89          C90   1.404       .  A
C90          H91   1.084       .  S
O93        Cu101   1.984       .  S
O93         C103   1.274       .  A
O94        Cu101   1.979       .  S
O94         C104   1.274       .  A
O95        Cu101   2.037       .  S
O95         C105   1.282       .  A
O96        Cu101   2.037       .  S
O96         C106   1.282       .  A
O97        Cu102   1.997       .  S
O97         C106   1.276       .  A
O98        Cu102   1.992       .  S
O98         C105   1.276       .  A
O99        Cu102   2.040       .  S
O99         C104   1.282       .  A
O100       Cu102   2.041       .  S
O100        C103   1.283       .  A
Cu101      Cu102   2.368       .  S
C103        C460   1.484       .  S
C104        C401   1.482       .  S
C105        C377   1.486       .  S
C106        C425   1.487       .  S
C107        N108   1.357       .  A
C107        N112   1.361       .  A
C107        C436   1.489       .  S
N108        C109   1.358       .  A
C109        N110   1.361       .  A
C109        C700   1.488       .  S
N110        C111   1.362       .  A
C111        N112   1.362       .  A
C113        N114   1.355       .  A
C113        N118   1.362       .  A
C113        C412   1.485       .  S
N114        C115   1.355       .  A
C115        N116   1.359       .  A
C115        C497   1.483       .  S
N116        C117   1.362       .  A
C117        N118   1.364       .  A
C119        N120   1.356       .  A
C119        N124   1.359       .  A
C119        C449   1.486       .  S
N120        C121   1.357       .  A
C121        N122   1.362       .  A
C121        C364   1.486       .  S
N122        C123   1.362       .  A
C123        N124   1.362       .  A
C125        N126   1.358       .  A
C125        N130   1.354       .  A
C125        C388   1.488       .  S
N126        C127   1.362       .  A
C127        N128   1.365       .  A
N128        C129   1.364       .  A
C129        N130   1.358       .  A
C129        C340   1.490       .  S
C131        N132   1.356       .  A
C131        N136   1.363       .  A
C131        C316   1.492       .  S
N132        C133   1.355       .  A
C133        N134   1.359       .  A
C133        C484   1.479       .  S
N134        C135   1.361       .  A
C135        N136   1.367       .  A
C137        N138   1.356       .  A
C137        N142   1.362       .  A
C137        C281   1.486       .  S
N138        C139   1.355       .  A
C139        N140   1.361       .  A
C139        C713   1.486       .  S
N140        C141   1.363       .  A
C141        N142   1.364       .  A
O143       Cu151   2.040       .  S
O143        C153   1.283       .  A
O144       Cu151   2.041       .  S
O144        C154   1.282       .  A
O145       Cu151   1.985       .  S
O145        C155   1.275       .  A
O146       Cu151   1.983       .  S
O146        C156   1.274       .  A
O147       Cu152   2.040       .  S
O147        C156   1.283       .  A
O148       Cu152   2.039       .  S
O148        C155   1.282       .  A
O149       Cu152   1.995       .  S
O149        C154   1.276       .  A
O150       Cu152   2.001       .  S
O150        C153   1.276       .  A
Cu151      Cu152   2.367       .  S
C153        C305   1.490       .  S
C154        C257   1.488       .  S
C155        C292   1.483       .  S
C156        C233   1.484       .  S
C157        N158   1.362   1_455  A
C157        N162   1.356       .  A
C157        C244   1.486       .  S
N158        C159   1.363       .  A
C159        N160   1.362       .  A
N160        C161   1.359       .  A
C161        N162   1.356   1_655  A
C161        C209   1.485   1_655  S
C163        N164   1.360       .  A
C163        N168   1.355       .  A
C163        C268   1.489       .  S
N164        C165   1.364       .  A
C165        N166   1.365       .  A
N166        C167   1.363       .  A
C167        N168   1.357       .  A
C167        C196   1.487       .  S
C169        C916   1.484       .  S
C169        C170   1.415       .  A
C169        C174   1.405       .  A
C170        C220   1.480       .  S
C170        C171   1.402       .  A
C171        C172   1.404       .  A
C171        H176   1.084       .  S
C172        C556   1.484       .  S
C172        C173   1.419       .  A
C173        C329   1.485       .  S
C173        C174   1.404       .  A
C174        H175   1.084       .  S
C177        C820   1.488       .  S
C177        C178   1.420       .  A
C177        C182   1.405       .  A
C178        C185   1.482       .  S
C178        C179   1.405       .  A
C179        C180   1.403       .  A
C179        H184   1.084       .  S
C180        C521   1.481       .  S
C180        C181   1.415       .  A
C181        C353   1.484       .  S
C181        C182   1.402       .  A
C182        H183   1.084       .  S
C185        C186   1.404       .  A
C185        C190   1.401       .  A
C186        C187   1.403       .  A
C186        H199   1.083       .  S
C187        C188   1.406       .  A
C187        H200   1.084       .  S
C188        C189   1.409       .  A
C188        C191   1.490       .  S
C189        C190   1.395       .  A
C189        H201   1.081       .  S
C190        H202   1.084       .  S
C191        C192   1.347       .  D
C191        H203   1.085       .  S
C192        C193   1.487       .  S
C192        H204   1.086       .  S
C193        C194   1.401       .  A
C193        C198   1.410       .  A
C194        C195   1.392       .  A
C194        H205   1.083       .  S
C195        C196   1.406       .  A
C195        H206   1.083       .  S
C196        C197   1.407       .  A
C197        C198   1.407       .  A
C197        H207   1.083       .  S
C198        H208   1.081       .  S
C209        C210   1.407   1_455  A
C209        C214   1.406       .  A
C210        C211   1.403       .  A
C210        H223   1.083       .  S
C211        C212   1.406   1_655  A
C211        H224   1.083       .  S
C212        C213   1.406       .  A
C212        C215   1.489       .  S
C213        C214   1.394       .  A
C213        H225   1.082       .  S
C214        H226   1.083       .  S
C215        C216   1.349       .  D
C215        H227   1.085       .  S
C216        C217   1.486       .  S
C216        H228   1.085       .  S
C217        C218   1.404       .  A
C217        C222   1.409       .  A
C218        C219   1.395   1_545  A
C218        H229   1.083       .  S
C219        C220   1.401       .  A
C219        H230   1.083       .  S
C220        C221   1.403   1_565  A
C221        C222   1.402       .  A
C221        H231   1.083       .  S
C222        H232   1.082       .  S
C233        C234   1.405       .  A
C233        C238   1.407       .  A
C234        C235   1.403       .  A
C234        H247   1.083       .  S
C235        C236   1.407       .  A
C235        H248   1.083       .  S
C236        C237   1.406       .  A
C236        C239   1.490       .  S
C237        C238   1.395       .  A
C237        H249   1.081       .  S
C238        H250   1.083       .  S
C239        C240   1.351       .  D
C239        H251   1.084       .  S
C240        C241   1.490       .  S
C240        H252   1.085       .  S
C241        C242   1.406       .  A
C241        C246   1.407       .  A
C242        C243   1.401       .  A
C242        H253   1.083       .  S
C243        C244   1.405       .  A
C243        H254   1.083       .  S
C244        C245   1.408       .  A
C245        C246   1.397       .  A
C245        H255   1.083       .  S
C246        H256   1.081       .  S
C257        C258   1.407       .  A
C257        C262   1.406       .  A
C258        C259   1.396       .  A
C258        H271   1.083       .  S
C259        C260   1.403       .  A
C259        H272   1.083       .  S
C260        C261   1.412       .  A
C260        C263   1.495       .  S
C261        C262   1.405       .  A
C261        H273   1.081       .  S
C262        H274   1.083       .  S
C263        C264   1.349       .  D
C263        H275   1.083       .  S
C264        C265   1.496       .  S
C264        H276   1.084       .  S
C265        C266   1.403       .  A
C265        C270   1.412       .  A
C266        C267   1.396       .  A
C266        H277   1.083       .  S
C267        C268   1.407       .  A
C267        H278   1.083       .  S
C268        C269   1.406       .  A
C269        C270   1.405       .  A
C269        H279   1.083       .  S
C270        H280   1.080       .  S
C281        C282   1.407       .  A
C281        C286   1.406       .  A
C282        C283   1.395       .  A
C282        H295   1.083       .  S
C283        C284   1.401       .  A
C283        H296   1.083       .  S
C284        C285   1.411       .  A
C284        C287   1.489       .  S
C285        C286   1.404       .  A
C285        H297   1.082       .  S
C286        H298   1.083       .  S
C287        C288   1.346       .  D
C287        H299   1.084       .  S
C288        C289   1.492       .  S
C288        H300   1.085       .  S
C289        C290   1.402       .  A
C289        C294   1.412       .  A
C290        C291   1.394       .  A
C290        H301   1.083       .  S
C291        C292   1.406       .  A
C291        H302   1.083       .  S
C292        C293   1.405       .  A
C293        C294   1.404       .  A
C293        H303   1.083       .  S
C294        H304   1.081       .  S
C305        C306   1.405       .  A
C305        C310   1.409       .  A
C306        C307   1.403       .  A
C306        H319   1.083       .  S
C307        C308   1.407       .  A
C307        H320   1.083       .  S
C308        C309   1.407       .  A
C308        C311   1.495       .  S
C309        C310   1.401       .  A
C309        H321   1.081       .  S
C310        H322   1.083       .  S
C311        C312   1.353       .  D
C311        H323   1.085       .  S
C312        C313   1.497       .  S
C312        H324   1.085       .  S
C313        C314   1.408       .  A
C313        C318   1.406       .  A
C314        C315   1.406   1_455  A
C314        H325   1.083       .  S
C315        C316   1.406       .  A
C315        H326   1.083       .  S
C316        C317   1.409   1_655  A
C317        C318   1.397       .  A
C317        H327   1.083       .  S
C318        H328   1.081       .  S
C329        C330   1.404       .  A
C329        C334   1.403       .  A
C330        C331   1.403       .  A
C330        H343   1.083       .  S
C331        C332   1.406       .  A
C331        H344   1.084       .  S
C332        C333   1.409       .  A
C332        C335   1.491       .  S
C333        C334   1.395       .  A
C333        H345   1.082       .  S
C334        H346   1.084       .  S
C335        C336   1.347       .  D
C335        H347   1.086       .  S
C336        C337   1.487       .  S
C336        H348   1.086       .  S
C337        C338   1.400       .  A
C337        C342   1.410       .  A
C338        C339   1.392       .  A
C338        H349   1.084       .  S
C339        C340   1.407       .  A
C339        H350   1.082       .  S
C340        C341   1.408       .  A
C341        C342   1.407       .  A
C341        H351   1.083       .  S
C342        H352   1.081       .  S
C353        C354   1.401       .  A
C353        C358   1.404       .  A
C354        C355   1.399       .  A
C354        H367   1.083       .  S
C355        C356   1.406       .  A
C355        H368   1.083       .  S
C356        C357   1.408       .  A
C356        C359   1.488       .  S
C357        C358   1.398       .  A
C357        H369   1.081       .  S
C358        H370   1.083       .  S
C359        C360   1.351       .  D
C359        H371   1.084       .  S
C360        C361   1.489       .  S
C360        H372   1.084       .  S
C361        C362   1.406       .  A
C361        C366   1.406       .  A
C362        C363   1.403       .  A
C362        H373   1.083       .  S
C363        C364   1.406       .  A
C363        H374   1.083       .  S
C364        C365   1.407       .  A
C365        C366   1.395       .  A
C365        H375   1.083       .  S
C366        H376   1.081       .  S
C377        C378   1.405       .  A
C377        C382   1.407       .  A
C378        C379   1.403       .  A
C378        H391   1.083       .  S
C379        C380   1.407       .  A
C379        H392   1.083       .  S
C380        C381   1.406       .  A
C380        C383   1.491   1_655  S
C381        C382   1.397       .  A
C381        H393   1.081       .  S
C382        H394   1.083       .  S
C383        C384   1.351       .  D
C383        H395   1.085       .  S
C384        C385   1.490       .  S
C384        H396   1.085       .  S
C385        C386   1.406       .  A
C385        C390   1.406       .  A
C386        C387   1.402       .  A
C386        H397   1.083       .  S
C387        C388   1.406       .  A
C387        H398   1.083       .  S
C388        C389   1.408       .  A
C389        C390   1.398       .  A
C389        H399   1.083       .  S
C390        H400   1.081       .  S
C401        C402   1.406       .  A
C401        C406   1.406       .  A
C402        C403   1.392       .  A
C402        H415   1.083       .  S
C403        C404   1.400       .  A
C403        H416   1.083       .  S
C404        C405   1.411       .  A
C404        C407   1.487   1_655  S
C405        C406   1.405       .  A
C405        H417   1.081   1_655  S
C406        H418   1.083       .  S
C407        C408   1.345       .  D
C407        H419   1.085       .  S
C408        C409   1.489       .  S
C408        H420   1.085       .  S
C409        C410   1.401       .  A
C409        C414   1.411       .  A
C410        C411   1.395       .  A
C410        H421   1.083       .  S
C411        C412   1.408       .  A
C411        H422   1.083       .  S
C412        C413   1.405       .  A
C413        C414   1.402       .  A
C413        H423   1.083       .  S
C414        H424   1.082       .  S
C425        C426   1.405       .  A
C425        C430   1.408       .  A
C426        C427   1.403       .  A
C426        H439   1.083       .  S
C427        C428   1.407       .  A
C427        H440   1.083       .  S
C428        C429   1.407       .  A
C428        C431   1.493       .  S
C429        C430   1.399       .  A
C429        H441   1.081       .  S
C430        H442   1.083       .  S
C431        C432   1.352       .  D
C431        H443   1.084       .  S
C432        C433   1.494       .  S
C432        H444   1.085       .  S
C433        C434   1.406       .  A
C433        C438   1.408       .  A
C434        C435   1.401       .  A
C434        H445   1.083       .  S
C435        C436   1.406       .  A
C435        H446   1.083       .  S
C436        C437   1.408       .  A
C437        C438   1.399       .  A
C437        H447   1.083       .  S
C438        H448   1.080       .  S
C449        C450   1.406       .  A
C449        C454   1.407       .  A
C450        C451   1.402       .  A
C450        H463   1.083       .  S
C451        C452   1.405       .  A
C451        H464   1.083       .  S
C452        C453   1.405       .  A
C452        C455   1.488       .  S
C453        C454   1.396       .  A
C453        H465   1.081       .  S
C454        H466   1.083       .  S
C455        C456   1.350       .  D
C455        H467   1.085       .  S
C456        C457   1.488       .  S
C456        H468   1.085       .  S
C457        C458   1.406       .  A
C457        C462   1.405       .  A
C458        C459   1.403       .  A
C458        H469   1.083       .  S
C459        C460   1.405       .  A
C459        H470   1.083       .  S
C460        C461   1.408       .  A
C461        C462   1.396       .  A
C461        H471   1.083       .  S
C462        H472   1.082       .  S
C473        C474   1.402       .  A
C473        C478   1.400       .  A
C474        C475   1.401       .  A
C474        H487   1.083   1_554  S
C475        C476   1.405       .  A
C475        H488   1.083       .  S
C476        C477   1.408       .  A
C476        C479   1.486       .  S
C477        C478   1.395       .  A
C477        H489   1.081       .  S
C478        H490   1.083       .  S
C479        C480   1.347       .  D
C479        H491   1.085       .  S
C480        C481   1.481   1_455  S
C480        H492   1.085       .  S
C481        C482   1.401       .  A
C481        C486   1.407       .  A
C482        C483   1.394       .  A
C482        H493   1.083   1_655  S
C483        C484   1.405       .  A
C483        H494   1.083       .  S
C484        C485   1.406       .  A
C485        C486   1.402       .  A
C485        H495   1.083       .  S
C486        H496   1.082       .  S
C497        C498   1.406       .  A
C497        C502   1.406       .  A
C498        C499   1.402       .  A
C498        H511   1.083       .  S
C499        C500   1.405       .  A
C499        H512   1.083       .  S
C500        C501   1.406       .  A
C500        C503   1.487       .  S
C501        C502   1.393       .  A
C501        H513   1.082       .  S
C502        H514   1.083       .  S
C503        C504   1.348       .  D
C503        H515   1.085       .  S
C504        C505   1.483       .  S
C504        H516   1.085       .  S
C505        C506   1.403       .  A
C505        C510   1.409       .  A
C506        C507   1.393       .  A
C506        H517   1.083       .  S
C507        C508   1.401       .  A
C507        H518   1.083       .  S
C508        C509   1.402       .  A
C509        C510   1.401       .  A
C509        H519   1.083       .  S
C510        H520   1.081       .  S
C521        C522   1.404       .  A
C521        C526   1.401       .  A
C522        C523   1.402       .  A
C522        H535   1.083       .  S
C523        C524   1.405       .  A
C523        H536   1.083       .  S
C524        C525   1.409       .  A
C524        C527   1.489       .  S
C525        C526   1.395       .  A
C525        H537   1.082       .  S
C526        H538   1.083       .  S
C527        C528   1.347       .  D
C527        H539   1.086       .  S
C528        C529   1.483       .  S
C528        H540   1.086       .  S
C529        C530   1.400       .  A
C529        C534   1.409       .  A
C530        C531   1.392       .  A
C530        H541   1.084       .  S
C531        C532   1.405       .  A
C531        H542   1.083       .  S
C532        C533   1.407       .  A
C533        C534   1.406       .  A
C533        H543   1.083       .  S
C534        H544   1.082       .  S
C545        C546   1.406       .  A
C545        C550   1.406       .  A
C546        C547   1.395       .  A
C546        H559   1.083       .  S
C547        C548   1.403       .  A
C547        H560   1.084       .  S
C548        C549   1.411       .  A
C548        C551   1.492       .  S
C549        C550   1.403       .  A
C549        H561   1.080       .  S
C550        H562   1.083       .  S
C551        C552   1.349       .  D
C551        H563   1.085       .  S
C552        C553   1.489       .  S
C552        H564   1.083       .  S
C553        C554   1.404       .  A
C553        C558   1.410       .  A
C554        C555   1.398       .  A
C554        H565   1.084       .  S
C555        C556   1.404       .  A
C555        H566   1.083       .  S
C556        C557   1.402       .  A
C557        C558   1.399       .  A
C557        H567   1.084       .  S
C558        H568   1.081       .  S
C569        C570   1.405       .  A
C569        C574   1.407       .  A
C570        C571   1.391       .  A
C570        H583   1.083       .  S
C571        C572   1.401       .  A
C571        H584   1.084       .  S
C572        C573   1.412       .  A
C572        C575   1.492       .  S
C573        C574   1.408       .  A
C573        H585   1.080       .  S
C574        H586   1.083       .  S
C575        C576   1.348       .  D
C575        H587   1.084       .  S
C576        C577   1.493       .  S
C576        H588   1.084       .  S
C577        C578   1.403       .  A
C577        C582   1.411       .  A
C578        C579   1.399       .  A
C578        H589   1.083       .  S
C579        C580   1.408       .  A
C579        H590   1.083       .  S
C580        C581   1.404       .  A
C581        C582   1.400       .  A
C581        H591   1.083       .  S
C582        H592   1.081       .  S
C593        C594   1.405       .  A
C593        C598   1.406       .  A
C594        C595   1.402       .  A
C594        H607   1.083       .  S
C595        C596   1.406       .  A
C595        H608   1.083       .  S
C596        C597   1.406       .  A
C596        C599   1.487       .  S
C597        C598   1.395       .  A
C597        H609   1.081       .  S
C598        H610   1.083       .  S
C599        C600   1.349   1_545  D
C599        H611   1.085       .  S
C600        C601   1.487       .  S
C600        H612   1.085       .  S
C601        C602   1.404       .  A
C601        C606   1.407       .  A
C602        C603   1.399       .  A
C602        H613   1.084       .  S
C603        C604   1.406       .  A
C603        H614   1.083       .  S
C604        C605   1.407       .  A
C605        C606   1.397       .  A
C605        H615   1.083       .  S
C606        H616   1.081       .  S
C617        C618   1.406       .  A
C617        C622   1.408       .  A
C618        C619   1.402       .  A
C618        H631   1.083       .  S
C619        C620   1.406       .  A
C619        H632   1.083       .  S
C620        C621   1.406       .  A
C620        C623   1.489       .  S
C621        C622   1.396       .  A
C621        H633   1.081       .  S
C622        H634   1.083       .  S
C623        C624   1.351       .  D
C623        H635   1.084       .  S
C624        C625   1.490       .  S
C624        H636   1.085       .  S
C625        C626   1.407       .  A
C625        C630   1.408       .  A
C626        C627   1.399       .  A
C626        H637   1.083       .  S
C627        C628   1.401       .  A
C627        H638   1.083       .  S
C628        C629   1.404       .  A
C629        C630   1.399       .  A
C629        H639   1.083       .  S
C630        H640   1.081       .  S
C641        C642   1.406       .  A
C641        C646   1.408       .  A
C642        C643   1.401       .  A
C642        H655   1.083       .  S
C643        C644   1.405       .  A
C643        H656   1.084       .  S
C644        C645   1.405       .  A
C644        C647   1.485       .  S
C645        C646   1.396       .  A
C645        H657   1.082       .  S
C646        H658   1.083       .  S
C647        C648   1.349       .  D
C647        H659   1.086       .  S
C648        C649   1.485       .  S
C648        H660   1.086       .  S
C649        C650   1.406       .  A
C649        C654   1.404       .  A
C650        C651   1.402       .  A
C650        H661   1.083       .  S
C651        C652   1.405       .  A
C651        H662   1.083       .  S
C652        C653   1.406       .  A
C653        C654   1.393       .  A
C653        H663   1.083       .  S
C654        H664   1.082       .  S
C665        C666   1.407       .  A
C665        C670   1.407       .  A
C666        C667   1.395       .  A
C666        H679   1.083       .  S
C667        C668   1.402       .  A
C667        H680   1.083       .  S
C668        C669   1.411       .  A
C668        C671   1.492       .  S
C669        C670   1.404       .  A
C669        H681   1.081       .  S
C670        H682   1.083       .  S
C671        C672   1.348       .  D
C671        H683   1.084   1_565  S
C672        C673   1.493   1_565  S
C672        H684   1.084       .  S
C673        C674   1.403       .  A
C673        C678   1.412       .  A
C674        C675   1.396       .  A
C674        H685   1.083       .  S
C675        C676   1.407       .  A
C675        H686   1.083       .  S
C676        C677   1.405       .  A
C677        C678   1.403       .  A
C677        H687   1.083       .  S
C678        H688   1.080       .  S
C689        C690   1.402       .  A
C689        C694   1.403       .  A
C690        C691   1.395       .  A
C690        H703   1.083       .  S
C691        C692   1.404       .  A
C691        H704   1.083       .  S
C692        C693   1.410       .  A
C692        C695   1.489       .  S
C693        C694   1.404       .  A
C693        H705   1.081       .  S
C694        H706   1.083       .  S
C695        C696   1.350       .  D
C695        H707   1.085       .  S
C696        C697   1.492       .  S
C696        H708   1.085       .  S
C697        C698   1.406       .  A
C697        C702   1.407       .  A
C698        C699   1.403       .  A
C698        H709   1.083       .  S
C699        C700   1.407       .  A
C699        H710   1.083       .  S
C700        C701   1.407       .  A
C701        C702   1.396       .  A
C701        H711   1.083       .  S
C702        H712   1.081       .  S
C713        C714   1.406       .  A
C713        C718   1.408       .  A
C714        C715   1.402       .  A
C714        H727   1.083       .  S
C715        C716   1.405       .  A
C715        H728   1.083       .  S
C716        C717   1.405       .  A
C716        C719   1.488       .  S
C717        C718   1.396       .  A
C717        H729   1.082       .  S
C718        H730   1.083       .  S
C719        C720   1.351       .  D
C719        H731   1.082       .  S
C720        C721   1.493       .  S
C720        H732   1.085       .  S
C721        C722   1.408       .  A
C721        C726   1.409       .  A
C722        C723   1.400       .  A
C722        H733   1.083       .  S
C723        C724   1.400       .  A
C723        H734   1.083       .  S
C724        C725   1.404       .  A
C725        C726   1.399       .  A
C725        H735   1.083   1_554  S
C726        H736   1.079       .  S
C737        C738   1.406       .  A
C737        C742   1.407       .  A
C738        C739   1.402       .  A
C738        H751   1.083       .  S
C739        C740   1.406       .  A
C739        H752   1.083       .  S
C740        C741   1.407       .  A
C740        C743   1.491       .  S
C741        C742   1.397       .  A
C741        H753   1.081       .  S
C742        H754   1.083       .  S
C743        C744   1.352       .  D
C743        H755   1.083       .  S
C744        C745   1.493       .  S
C744        H756   1.085       .  S
C745        C746   1.408       .  A
C745        C750   1.409       .  A
C746        C747   1.401       .  A
C746        H757   1.083       .  S
C747        C748   1.401       .  A
C747        H758   1.083   1_565  S
C748        C749   1.404       .  A
C749        C750   1.399       .  A
C749        H759   1.083       .  S
C750        H760   1.080       .  S
C761        C762   1.404       .  A
C761        C766   1.403       .  A
C762        C763   1.404       .  A
C762        H775   1.083   1_554  S
C763        C764   1.405       .  A
C763        H776   1.083       .  S
C764        C765   1.407       .  A
C764        C767   1.489       .  S
C765        C766   1.396       .  A
C765        H777   1.083       .  S
C766        H778   1.083       .  S
C767        C768   1.350   1_565  D
C767        H779   1.083       .  S
C768        C769   1.490       .  S
C768        H780   1.086       .  S
C769        C770   1.403       .  A
C769        C774   1.410       .  A
C770        C771   1.396       .  A
C770        H781   1.083       .  S
C771        C772   1.404       .  A
C771        H782   1.083       .  S
C772        C773   1.405       .  A
C773        C774   1.406       .  A
C773        H783   1.083       .  S
C774        H784   1.081       .  S
C785        C786   1.404   1_454  A
C785        C790   1.400   1_455  A
C786        C787   1.399   1_556  A
C786        H799   1.083       .  S
C787        C788   1.403       .  A
C787        H800   1.084       .  S
C788        C789   1.410       .  A
C788        C791   1.489       .  S
C789        C790   1.399       .  A
C789        H801   1.082       .  S
C790        H802   1.084   1_655  S
C791        C792   1.347       .  D
C791        H803   1.085       .  S
C792        C793   1.488       .  S
C792        H804   1.086       .  S
C793        C794   1.401       .  A
C793        C798   1.410       .  A
C794        C795   1.394       .  A
C794        H805   1.083       .  S
C795        C796   1.407       .  A
C795        H806   1.083       .  S
C796        C797   1.408       .  A
C797        C798   1.405       .  A
C797        H807   1.083       .  S
C798        H808   1.081       .  S
C809        C810   1.406       .  A
C809        C814   1.407       .  A
C810        C811   1.400       .  A
C810        H823   1.083       .  S
C811        C812   1.404       .  A
C811        H824   1.084       .  S
C812        C813   1.408       .  A
C812        C815   1.490       .  S
C813        C814   1.399       .  A
C813        H825   1.081       .  S
C814        H826   1.083       .  S
C815        C816   1.350       .  D
C815        H827   1.083       .  S
C816        C817   1.494       .  S
C816        H828   1.086       .  S
C817        C818   1.406       .  A
C817        C822   1.411       .  A
C818        C819   1.398       .  A
C818        H829   1.083       .  S
C819        C820   1.402       .  A
C819        H830   1.083       .  S
C820        C821   1.405       .  A
C821        C822   1.400       .  A
C821        H831   1.083       .  S
C822        H832   1.080       .  S
C833        C834   1.405       .  A
C833        C838   1.405       .  A
C834        C835   1.393       .  A
C834        H847   1.083       .  S
C835        C836   1.402       .  A
C835        H848   1.083       .  S
C836        C837   1.409       .  A
C836        C839   1.486       .  S
C837        C838   1.403       .  A
C837        H849   1.081       .  S
C838        H850   1.083       .  S
C839        C840   1.346       .  D
C839        H851   1.086       .  S
C840        C841   1.485       .  S
C840        H852   1.085       .  S
C841        C842   1.401       .  A
C841        C846   1.408       .  A
C842        C843   1.398   1_565  A
C842        H853   1.083       .  S
C843        C844   1.408       .  A
C843        H854   1.083       .  S
C844        C845   1.405       .  A
C845        C846   1.398   1_545  A
C845        H855   1.083       .  S
C846        H856   1.082       .  S
C857        C858   1.405       .  A
C857        C862   1.407       .  A
C858        C859   1.401       .  A
C858        H871   1.083       .  S
C859        C860   1.407       .  A
C859        H872   1.083       .  S
C860        C861   1.408       .  A
C860        C863   1.493       .  S
C861        C862   1.398       .  A
C861        H873   1.081       .  S
C862        H874   1.083       .  S
C863        C864   1.352       .  D
C863        H875   1.084       .  S
C864        C865   1.493       .  S
C864        H876   1.084       .  S
C865        C866   1.407       .  A
C865        C870   1.407       .  A
C866        C867   1.403       .  A
C866        H877   1.083       .  S
C867        C868   1.405       .  A
C867        H878   1.083       .  S
C868        C869   1.408       .  A
C869        C870   1.397       .  A
C869        H879   1.083       .  S
C870        H880   1.080       .  S
C881        C882   1.406       .  A
C881        C886   1.406       .  A
C882        C883   1.393       .  A
C882        H895   1.083       .  S
C883        C884   1.401       .  A
C883        H896   1.083       .  S
C884        C885   1.410       .  A
C884        C887   1.488       .  S
C885        C886   1.404       .  A
C885        H897   1.081       .  S
C886        H898   1.083       .  S
C887        C888   1.346       .  D
C887        H899   1.085       .  S
C888        C889   1.489       .  S
C888        H900   1.085       .  S
C889        C890   1.402       .  A
C889        C894   1.410       .  A
C890        C891   1.397       .  A
C890        H901   1.083       .  S
C891        C892   1.407       .  A
C891        H902   1.083       .  S
C892        C893   1.406       .  A
C893        C894   1.401       .  A
C893        H903   1.083       .  S
C894        H904   1.081       .  S
C905        C906   1.406       .  A
C905        C910   1.408   1_545  A
C906        C907   1.404       .  A
C906        H919   1.083       .  S
C907        C908   1.407       .  A
C907        H920   1.083       .  S
C908        C909   1.405   1_545  A
C908        C911   1.490   1_545  S
C909        C910   1.395       .  A
C909        H921   1.081       .  S
C910        H922   1.083       .  S
C911        C912   1.352       .  D
C911        H923   1.082   1_565  S
C912        C913   1.492       .  S
C912        H924   1.084       .  S
C913        C914   1.408       .  A
C913        C918   1.409       .  A
C914        C915   1.400   1_655  A
C914        H925   1.083       .  S
C915        C916   1.401       .  A
C915        H926   1.083       .  S
C916        C917   1.404   1_455  A
C917        C918   1.398       .  A
C917        H927   1.083       .  S
C918        H928   1.080   1_565  S
C929        C930   1.405   1_565  A
C929        C934   1.408       .  A
C930        C931   1.401   1_545  A
C930        H943   1.083       .  S
C931        C932   1.406       .  A
C931        H944   1.083       .  S
C932        C933   1.406       .  A
C932        C935   1.490       .  S
C933        C934   1.397       .  A
C933        H945   1.081       .  S
C934        H946   1.083       .  S
C935        C936   1.351       .  D
C935        H947   1.085       .  S
C936        C937   1.490       .  S
C936        H948   1.085       .  S
C937        C938   1.406       .  A
C937        C942   1.407       .  A
C938        C939   1.402       .  A
C938        H949   1.083       .  S
C939        C940   1.405       .  A
C939        H950   1.083       .  S
C940        C941   1.407       .  A
C941        C942   1.397       .  A
C941        H951   1.083       .  S
C942        H952   1.081       .  S
