geometry optimzed in LAMMPS
_audit_creation_date              2020-11-30 
_audit_creation_method            'lammps2cif' 
_symmetry_space_group_name_H-M    'P1' 
_symmetry_Int_Tables_number       1 
_symmetry_cell_setting            triclinic 
loop_ 
_symmetry_equiv_pos_as_xyz 
  x,y,z 
_cell_length_a                    36.96516911512007 
_cell_length_b                    36.960917309050274 
_cell_length_c                    47.523881694396884 
_cell_angle_alpha                 88.48044655037268 
_cell_angle_beta                  91.21124198591473 
_cell_angle_gamma                 121.81589829139924 
loop_ 
_atom_site_label 
_atom_site_type_symbol 
_atom_site_fract_x 
_atom_site_fract_y 
_atom_site_fract_z 
_atom_site_charge 
C1          C  0.33833024  0.16690852  0.00512392    -0.02680
C2          C  0.33146207  0.16760837  0.13200648    -0.02680
C3          C  0.15955578  0.34538087  0.38183850    -0.02680
C4          C  0.15905275  0.34111535  0.25463381    -0.02680
C5          C  0.08239467  0.16499093  0.41384226     0.42270
N6          N  0.05506045  0.10749587  0.43827178     0.01160
C7          C  0.02659157  0.41332280  0.40861099    -0.06720
H8          H  0.43727883  0.44958754  0.34301923     0.06650
C9          C  0.35874795  0.44973692  0.43490763    -0.07070
Co10       Co  0.06092026  0.03970195  0.41042331     0.74180
N11         N  0.48326421  0.48577247  0.37539681    -0.26250
Co12       Co  0.46326214  0.44488071  0.41054606     0.74070
C13         C  0.34437005  0.43292274  0.40691967     0.42370
N14         N  0.44096374  0.03147089  0.47380994     0.00770
N15         N  0.40736529  0.44546614  0.41342842     0.00880
N16         N  0.08960301  0.47601361  0.40841125    -0.47100
H17         H  0.09497904  0.13461387  0.37652860     0.06630
N18         N  0.02037485  0.02212810  0.37496538     0.01160
N19         N  0.44395862  0.40483058  0.44584017     0.00900
C20         C  0.41960343  0.34902368  0.47217314     0.42510
N21         N  0.47868763  0.06696787  0.47383573    -0.25710
C22         C  0.14000526  0.06400637  0.44741913    -0.06630
N23         N  0.06551469  0.14754129  0.43898242    -0.46810
N24         N  0.43556235  0.36532679  0.44650929    -0.47040
C25         C  0.15479323  0.08065871  0.47541743     0.42280
N26         N  0.05712846  0.48170153  0.40870007     0.01150
N27         N  0.01387949  0.02567992  0.00818719    -0.25730
N28         N  0.06441337  0.09751775  0.41413635    -0.26220
N29         N  0.47626979  0.48991662  0.00831879     0.00790
H30         H  0.05922478  0.06079596  0.04116547     0.06680
H31         H  0.40344967  0.38041042  0.00724876     0.06710
N32         N  0.01994952  0.44558691  0.40896095    -0.26270
N33         N  0.39788139  0.45638119  0.43712306    -0.25880
N34         N  0.09085354  0.06611845  0.46993594     0.01150
C35         C  0.49716971  0.01425558  0.33217800     0.42550
C36         C  0.47333878  0.10001865  0.47311977    -0.07130
N37         N  0.43363677  0.41531712  0.46937426    -0.25880
H38         H  0.34137470  0.45313370  0.45161292     0.06700
N39         N  0.03030947  0.03981336  0.34933556    -0.47100
H40         H  0.49882037  0.13306697  0.47242649     0.06690
C41         C  0.99814393  0.99664895  0.05137278     0.42390
C42         C  0.08142175  0.13196748  0.39698738    -0.06630
Co43       Co  0.03493582  0.06682229  0.47299159     0.73820
N44         N  0.40922787  0.03848322  0.47329222    -0.46820
C45         C  0.07303597  0.43360090  0.40846527     0.42650
N46         N  0.12318874  0.08210647  0.48807795    -0.46810
Co47       Co  0.43664029  0.47293560  0.47257410     0.73890
C48         C  0.41765794  0.38197529  0.48728514    -0.07140
C49         C  0.46607301  0.47839223  0.34946530    -0.06700
N50         N  0.10035637  0.05619453  0.44580643    -0.26230
N51         N  0.37556107  0.43007572  0.39493613    -0.46990
H52         H  0.00180599  0.37999992  0.40872957     0.06660
C53         C  0.03028548  0.03241899  0.03437456    -0.07110
Cl54       Cl  0.49898361  0.00607604  0.44164823    -0.50120
C55         C  0.42719530  0.08123108  0.47256790     0.42420
H56         H  0.15743448  0.06163394  0.43030115     0.06630
N57         N  0.46533527  0.47191496  0.03381565    -0.46830
C58         C  0.42475576  0.07928763  0.15355627     0.42270
N59         N  0.47136265  0.06153226  0.15538816     0.01160
C60         C  0.43627019  0.36416319  0.19403017    -0.06720
H61         H  0.37607509  0.42023952  0.26294982     0.06650
C62         C  0.03401213  0.04456923  0.28279544    -0.07070
Co63       Co  0.43191388  0.46754920  0.16242686     0.74180
N64         N  0.40787001  0.44494370  0.22314062    -0.26250
Co65       Co  0.46487647  0.44604686  0.22651718     0.74070
C66         C  0.49847608  0.01534073  0.30103131     0.42370
N67         N  0.06301403  0.09885059  0.21410414     0.00770
N68         N  0.48713327  0.48970057  0.25934422     0.00880
N69         N  0.41418619  0.37759585  0.15246774    -0.47100
H70         H  0.36967577  0.00903596  0.15750135     0.06630
N71         N  0.39536155  0.45289773  0.19875903     0.01160
N72         N  0.02215124  0.44743240  0.22827333     0.00900
C73         C  0.06856384  0.42894545  0.22916259     0.42510
N74         N  0.05024143  0.10584852  0.18953886    -0.25710
C75         C  0.45987065  0.46532327  0.10048190    -0.06630
N76         N  0.46694883  0.09480538  0.15304851    -0.46810
N77         N  0.02644913  0.41404097  0.23012139    -0.47040
C78         C  0.99584071  0.99486013  0.08253351     0.42280
N79         N  0.43106975  0.41104631  0.16907960     0.01150
N80         N  0.08452868  0.06354266  0.16070309    -0.25730
N81         N  0.43465538  0.02505838  0.15744718    -0.26220
N82         N  0.09672830  0.05515675  0.18499560     0.00790
H83         H  0.11626206  0.08965641  0.12145666     0.06680
H84         H  0.12390066  0.49882281  0.22471720     0.06710
N85         N  0.44358307  0.40358330  0.19361138    -0.26270
N86         N  0.02420523  0.02595805  0.25748147    -0.25880
N87         N  0.00635867  0.01960198  0.12442655     0.01150
C88         C  0.34234658  0.43285693  0.22618979     0.42550
C89         C  0.05929439  0.14588415  0.18803363    -0.07130
N90         N  0.05896497  0.48377369  0.22611792    -0.25880
H91         H  0.06378677  0.07304160  0.28829622     0.06700
N92         N  0.35613191  0.44524702  0.19957823    -0.47100
H93         H  0.05299465  0.15998617  0.16993405     0.06690
C94         C  0.14976768  0.07551709  0.15788867     0.42390
C95         C  0.40325216  0.03291873  0.15637746    -0.06630
Co96       Co  0.02826368  0.06289858  0.15719226     0.73820
N97         N  0.08177693  0.13343711  0.22975814    -0.46820
C98         C  0.41758214  0.34727261  0.16664504     0.42650
N99         N  0.02297204  0.02778777  0.09888911    -0.46810
Co100      Co  0.06128548  0.04146445  0.22115633     0.73890
C101        C  0.09026160  0.47540120  0.22646056    -0.07140
C102        C  0.37634212  0.43187143  0.24178603    -0.06700
N103        N  0.46923944  0.48340923  0.12600506    -0.26230
N104        N  0.47103277  0.48197257  0.28502740    -0.46990
H105        H  0.44059697  0.34848629  0.21214209     0.06660
C106        C  0.11605251  0.07692741  0.14219211    -0.07110
Cl107      Cl  0.49651962  0.00452295  0.19188245    -0.50120
C108        C  0.08097406  0.16454128  0.21440779     0.42420
H109        H  0.43019716  0.43696841  0.09466907     0.06630
N110        N  0.13562231  0.06235251  0.18428681    -0.46830
C111        C  0.09516944  0.21510109  0.25165300    -0.20500
C112        C  0.09950644  0.20906953  0.22350657    -0.07060
C113        C  0.11956577  0.24504296  0.20516871     0.13800
C114        C  0.13501114  0.28583470  0.21589655    -0.20550
C115        C  0.13426520  0.29306414  0.24491526    -0.07070
C116        C  0.10916488  0.25549734  0.26219710     0.13790
C117        C  0.09067583  0.25408513  0.29027254    -0.23900
H118        H  0.07788525  0.18728030  0.26534981     0.15080
H119        H  0.15041995  0.31291416  0.20159779     0.15110
C120        C  0.12763729  0.24167773  0.17468174    -0.23850
H121        H  0.10971397  0.25094393  0.30741907     0.05320
H122        H  0.05762924  0.22610691  0.29197114     0.08550
H123        H  0.08684443  0.28120683  0.29283375     0.08550
H124        H  0.09764386  0.22811923  0.16239591     0.08530
H125        H  0.14187052  0.22185988  0.17271909     0.08530
H126        H  0.15018596  0.27339699  0.16510846     0.05310
C127        C  0.08978521  0.34030095  0.24693528    -0.20500
C128        C  0.13328601  0.35975513  0.23992651    -0.07060
C129        C  0.14925137  0.39544035  0.22080034     0.13800
C130        C  0.12802622  0.41787343  0.21840650    -0.20550
C131        C  0.08808721  0.40233380  0.23065680    -0.07070
C132        C  0.06756621  0.36138778  0.24349255     0.13790
C133        C  0.02332557  0.34044845  0.25538215    -0.23900
H134        H  0.07390485  0.30991274  0.25764938     0.15080
H135        H  0.14203658  0.44688702  0.20572678     0.15110
C136        C  0.18493030  0.40881683  0.20024864    -0.23850
H137        H  0.01312470  0.30916700  0.26561470     0.05320
H138        H  0.00011239  0.33469742  0.23829542     0.08550
H139        H  0.02233076  0.36105371  0.27153968     0.08550
H140        H  0.19499493  0.38571023  0.19857764     0.08530
H141        H  0.21255011  0.44068719  0.20553082     0.08530
H142        H  0.17371851  0.41100234  0.17876238     0.05310
C143        C  0.22629677  0.34561328  0.23374676    -0.20500
C144        C  0.20775404  0.36663435  0.24634486    -0.07060
C145        C  0.23678452  0.41068519  0.25320073     0.13800
C146        C  0.28035198  0.43080299  0.24684773    -0.20550
C147        C  0.29683643  0.40943171  0.23365470    -0.07070
C148        C  0.26967035  0.36635705  0.22714280     0.13790
C149        C  0.28670833  0.34176497  0.21374126    -0.23900
H150        H  0.20818788  0.31187729  0.23044596     0.15080
H151        H  0.30176938  0.46405359  0.25189990     0.15110
C152        C  0.22454640  0.43907219  0.26687027    -0.23850
H153        H  0.26133976  0.30806127  0.21014632     0.05320
H154        H  0.31137697  0.34200282  0.22761871     0.08550
H155        H  0.30100043  0.35651217  0.19305847     0.08550
H156        H  0.19028843  0.42508241  0.26907455     0.08530
H157        H  0.23613806  0.46855277  0.25391067     0.08530
H158        H  0.23966563  0.44815343  0.28799074     0.05310
C159        C  0.14431655  0.28544106  0.41766208    -0.20500
C160        C  0.13528006  0.29700422  0.39102405    -0.07060
C161        C  0.10093774  0.26298177  0.37537040     0.13800
C162        C  0.08797773  0.22073929  0.38200680    -0.20550
C163        C  0.10142031  0.21034080  0.40673855    -0.07070
C164        C  0.12869755  0.24285665  0.42543114     0.13790
C165        C  0.14289543  0.23314346  0.45305535    -0.23900
H166        H  0.16520956  0.31028083  0.43210174     0.15080
H167        H  0.06375047  0.19514807  0.36928368     0.15110
C168        C  0.07049198  0.26854265  0.35672695    -0.23850
H169        H  0.16659190  0.26264469  0.46405253     0.05320
H170        H  0.15789214  0.21442275  0.44929004     0.08550
H171        H  0.11528098  0.21487038  0.46722824     0.08550
H172        H  0.08502430  0.28517586  0.33721783     0.08530
H173        H  0.05834636  0.28596634  0.36766031     0.08530
H174        H  0.04212420  0.23758617  0.35057897     0.05310
C175        C  0.16259015  0.41085715  0.40456012    -0.20500
C176        C  0.13914631  0.36674705  0.39902413    -0.07060
C177        C  0.09601141  0.34516058  0.40916010     0.13800
C178        C  0.07539753  0.36785641  0.41055515    -0.20550
C179        C  0.09775807  0.41223490  0.40828404    -0.07070
C180        C  0.14275515  0.43418753  0.40785612     0.13790
C181        C  0.17040832  0.48191840  0.41014213    -0.23900
H182        H  0.19652757  0.42797235  0.40635278     0.15080
H183        H  0.04184614  0.35059934  0.41543380     0.15110
C184        C  0.07502510  0.30416227  0.42659237    -0.23850
H185        H  0.20484033  0.49324679  0.40993530     0.05320
H186        H  0.16388981  0.49210771  0.43019351     0.08550
H187        H  0.16420723  0.49748505  0.39199477     0.08550
H188        H  0.09722650  0.30618550  0.44339794     0.08530
H189        H  0.06289389  0.27525588  0.41420211     0.08530
H190        H  0.04668899  0.29908618  0.43795911     0.05310
C191        C  0.28381072  0.43179987  0.38398709    -0.20500
C192        C  0.29972618  0.40955877  0.39778789    -0.07060
C193        C  0.27271163  0.36596482  0.40332627     0.13800
C194        C  0.22934423  0.34629440  0.39657968    -0.20550
C195        C  0.21012339  0.36928600  0.38690470    -0.07070
C196        C  0.24041485  0.41239156  0.37720179     0.13790
C197        C  0.23082682  0.44015223  0.35860806    -0.23900
H198        H  0.30576509  0.46494045  0.37821164     0.15080
H199        H  0.21193014  0.31214348  0.39732991     0.15110
C200        C  0.28969018  0.33995724  0.41615078    -0.23850
H201        H  0.24660487  0.44545640  0.33800731     0.05320
H202        H  0.24350683  0.47157668  0.36848880     0.08550
H203        H  0.19717717  0.42737398  0.35476586     0.08550
H204        H  0.30440290  0.35283033  0.43699788     0.08530
H205        H  0.31402541  0.34125721  0.40214627     0.08530
H206        H  0.26416480  0.30602954  0.41930454     0.05310
C207        C  0.14063600  0.36328801  0.30165750    -0.20500
C208        C  0.16016114  0.34433760  0.28778970    -0.07060
C209        C  0.18020703  0.32812463  0.30561952     0.13800
C210        C  0.17662738  0.32816986  0.33486651    -0.20550
C211        C  0.15677114  0.34652304  0.34877297    -0.07070
C212        C  0.13729126  0.36358185  0.33114304     0.13790
C213        C  0.11056427  0.38007635  0.34187022    -0.23900
H214        H  0.12748321  0.37874172  0.28962805     0.15080
H215        H  0.19032715  0.31350983  0.34749248     0.15110
C216        C  0.20596799  0.31029903  0.29505130    -0.23850
H217        H  0.09576980  0.38874387  0.32451651     0.05320
H218        H  0.12989043  0.40934566  0.35395107     0.08550
H219        H  0.08383323  0.35520599  0.35443129     0.08550
H220        H  0.23684939  0.33655843  0.28694516     0.08530
H221        H  0.18854437  0.28583465  0.27897210     0.08530
H222        H  0.21409223  0.29457660  0.31210913     0.05310
C223        C  0.22504382  0.11782032  0.17225394    -0.20500
C224        C  0.19507355  0.09694099  0.15071183    -0.07060
C225        C  0.20896264  0.09575836  0.12365742     0.13800
C226        C  0.25258632  0.11753113  0.11844423    -0.20550
C227        C  0.28368437  0.14050555  0.13963576    -0.07070
C228        C  0.26881061  0.13870027  0.16748369     0.13790
C229        C  0.29740487  0.15762365  0.19302795    -0.23900
H230        H  0.21427897  0.11787096  0.19330114     0.15080
H231        H  0.26160342  0.11549178  0.09740709     0.15110
C232        C  0.17833303  0.07038202  0.10027434    -0.23850
H233        H  0.28594951  0.13359221  0.21045394     0.05320
H234        H  0.29649068  0.18548728  0.20017488     0.08550
H235        H  0.33071998  0.16720995  0.18941883     0.08550
H236        H  0.16062413  0.08547358  0.09301184     0.08530
H237        H  0.15584443  0.03721413  0.10766302     0.08530
H238        H  0.19507327  0.06882571  0.08163027     0.05310
C239        C  0.39185125  0.23496317  0.15731663    -0.20500
C240        C  0.35070572  0.21384815  0.14467695    -0.07060
C241        C  0.32945562  0.23754537  0.14457753     0.13800
C242        C  0.35282220  0.28116597  0.15110591    -0.20550
C243        C  0.39558822  0.30207363  0.15905979    -0.07070
C244        C  0.41527476  0.27859798  0.16247107     0.13790
C245        C  0.46171374  0.29950789  0.17059431    -0.23900
H246        H  0.40681894  0.21817778  0.16431388     0.15080
H247        H  0.33726931  0.29919358  0.15050342     0.15110
C248        C  0.28262110  0.21951414  0.13811685    -0.23850
H249        H  0.47296161  0.27699099  0.16971719     0.05320
H250        H  0.46706171  0.31129955  0.19233523     0.08550
H251        H  0.48143191  0.32642014  0.15582789     0.08550
H252        H  0.26333198  0.20397132  0.15713012     0.08530
H253        H  0.27073847  0.19760909  0.12021384     0.08530
H254        H  0.27648755  0.24508886  0.13211999     0.05310
C255        C  0.36278072  0.08554728  0.16155496    -0.20500
C256        C  0.40422848  0.10465491  0.15170035    -0.07060
C257        C  0.42280398  0.14481266  0.13827146     0.13800
C258        C  0.39881786  0.16395718  0.13461465    -0.20550
C259        C  0.35568992  0.14476062  0.14344610    -0.07070
C260        C  0.33707946  0.10250331  0.15608100     0.13790
C261        C  0.29022128  0.07049127  0.16116945    -0.23900
H262        H  0.34916068  0.05497644  0.17231206     0.15080
H263        H  0.41314188  0.19363653  0.12263823     0.15110
C264        C  0.46708240  0.16701912  0.12632165    -0.23850
H265        H  0.28364394  0.03822602  0.16686457     0.05320
H266        H  0.27129324  0.06529151  0.14173504     0.08550
H267        H  0.27846514  0.07896254  0.17939225     0.08550
H268        H  0.46908405  0.14651527  0.11054680     0.08530
H269        H  0.49061577  0.17419173  0.14349712     0.08530
H270        H  0.47593297  0.19766698  0.11564101     0.05310
C271        C  0.21513397  0.07999768  0.49727224    -0.20500
C272        C  0.19956076  0.10340014  0.48470138    -0.07060
C273        C  0.22731309  0.14708472  0.47951100     0.13800
C274        C  0.27073324  0.16617848  0.48635040    -0.20550
C275        C  0.28881801  0.14271526  0.49723008    -0.07070
C276        C  0.25838001  0.09855789  0.50423480     0.13790
C277        C  0.26809664  0.06839751  0.01931740    -0.23900
H278        H  0.19302955  0.04638640  0.50169238     0.15080
H279        H  0.28967523  0.20023854  0.48376984     0.15110
C280        C  0.21100879  0.17369404  0.46675528    -0.23850
H281        H  0.25139703  0.05835734  0.03983548     0.05320
H282        H  0.30160165  0.08207728  0.02327609     0.08550
H283        H  0.25725210  0.03977447  0.50639303     0.08550
H284        H  0.18657354  0.17240537  0.48066004     0.08530
H285        H  0.19654558  0.16128818  0.44577891     0.08530
H286        H  0.23681846  0.20757449  0.46393993     0.05310
C287        C  0.38517753  0.24842073  0.01495819    -0.20500
C288        C  0.36206908  0.21538286  0.49520915    -0.07060
C289        C  0.36398043  0.22897368  0.46645707     0.13800
C290        C  0.38306033  0.27263685  0.45979153    -0.20550
C291        C  0.40156820  0.30390114  0.48048485    -0.07070
C292        C  0.40427112  0.29162746  0.50823895     0.13790
C293        C  0.42945878  0.32369259  0.03081615    -0.23900
H294        H  0.39103383  0.24122368  0.03600051     0.15080
H295        H  0.38269435  0.28227495  0.43808540     0.15110
C296        C  0.34524231  0.19918804  0.44197011    -0.23850
H297        H  0.43379717  0.30852934  0.05001581     0.05320
H298        H  0.41251130  0.33931362  0.03744416     0.08550
H299        H  0.46169373  0.34779394  0.52296152     0.08550
H300        H  0.32174800  0.20448036  0.43068064     0.08530
H301        H  0.32854634  0.16527305  0.44798888     0.08530
H302        H  0.37098868  0.20582997  0.42718206     0.05310
C303        C  0.34202177  0.11041005  0.47555685    -0.20500
C304        C  0.36349866  0.14835347  0.49135027    -0.07060
C305        C  0.40894401  0.16793150  0.49399922     0.13800
C306        C  0.42796122  0.14540634  0.48645428    -0.20550
C307        C  0.40458251  0.10439098  0.47577970    -0.07070
C308        C  0.36130693  0.08746410  0.46883827     0.13790
C309        C  0.33516970  0.04542246  0.45429356    -0.23900
H310        H  0.30933188  0.09712097  0.96919872     0.15080
H311        H  0.46162427  0.15956417  0.49045379     0.15110
C312        C  0.43912958  0.21137184  0.50607760    -0.23850
H313        H  0.30264184  0.03819722  0.94896635     0.05320
H314        H  0.33169438  0.01927031  0.96824667     0.08550
H315        H  0.35081034  0.04612246  0.43441814     0.08550
H316        H  0.42978956  0.21324686  0.52765397     0.08530
H317        H  0.44116184  0.23653708  0.49180740     0.08530
H318        H  0.47231258  0.21868374  0.50802020     0.05310
C319        C  0.34191568  0.13949742  0.08537152    -0.20500
C320        C  0.33662717  0.17051143  0.09864921    -0.06880
C321        C  0.32871343  0.19629363  0.07964082     0.13800
C322        C  0.31938603  0.18430665  0.05145650    -0.20550
C323        C  0.33753749  0.16369272  0.03819542    -0.07070
C324        C  0.35123642  0.14184565  0.05674457     0.13790
C325        C  0.37677086  0.12190817  0.04941552    -0.23900
H326        H  0.34183941  0.11437347  0.09747971     0.15080
H327        H  0.30741171  0.20034176  0.03843407     0.15110
C328        C  0.34333141  0.24239128  0.08412818    -0.23850
H329        H  0.37825213  0.10260808  0.06720945     0.05320
H330        H  0.41034447  0.14713754  0.04590213     0.08550
H331        H  0.36430868  0.10003324  0.03159549     0.08550
H332        H  0.37139267  0.25809379  0.09829334     0.08530
H333        H  0.31683410  0.24617971  0.08994997     0.08530
H334        H  0.35500263  0.26138419  0.06433089     0.05310
C335        C  0.33833028  0.16690944  0.50512941    -0.02680
C336        C  0.33146634  0.16761054  0.63201198    -0.02680
C337        C  0.15955805  0.34538195  0.88183783    -0.02680
C338        C  0.15905297  0.34111590  0.75463279    -0.02680
C339        C  0.08240031  0.16499280  0.91384256     0.42270
N340        N  0.05506611  0.10749770  0.93827203     0.01160
C341        C  0.02659226  0.41332293  0.90861161    -0.06720
H342        H  0.43728080  0.44959008  0.84301925     0.06650
C343        C  0.35875083  0.44974159  0.93490752    -0.07070
Co344      Co  0.06092201  0.03970228  0.91042224     0.74180
N345        N  0.48326643  0.48577388  0.87539706    -0.26250
Co346      Co  0.46326395  0.44488254  0.91054702     0.74070
C347        C  0.34437247  0.43292591  0.90691989     0.42370
N348        N  0.44097059  0.03147741  0.97381000     0.00770
N349        N  0.40736766  0.44546913  0.91342900     0.00880
N350        N  0.08960375  0.47601362  0.90841058    -0.47100
H351        H  0.09498139  0.13461475  0.87652793     0.06630
N352        N  0.02037689  0.02212993  0.87496459     0.01160
N353        N  0.44396043  0.40483376  0.94584229     0.00900
C354        C  0.41960430  0.34902787  0.97217710     0.42510
N355        N  0.47869510  0.06697365  0.97383671    -0.25710
C356        C  0.14000478  0.06400092  0.94741650    -0.06630
N357        N  0.06552127  0.14754337  0.93898294    -0.46810
N358        N  0.43556389  0.36532987  0.94651300    -0.47040
C359        C  0.15479403  0.08065184  0.97541465     0.42280
N360        N  0.05712931  0.48170169  0.90869984     0.01150
N361        N  0.01387538  0.02567784  0.50818667    -0.25730
N362        N  0.06441723  0.09751902  0.91413612    -0.26220
N363        N  0.47626734  0.48991204  0.50831846     0.00790
H364        H  0.05922182  0.06079394  0.54116431     0.06680
H365        H  0.40344851  0.38040224  0.50724705     0.06710
N366        N  0.01995034  0.44558718  0.90896147    -0.26270
N367        N  0.39788424  0.45638570  0.93712319    -0.25880
N368        N  0.09085616  0.06611644  0.96993480     0.01150
C369        C  0.49717308  0.01425827  0.83217723     0.42550
C370        C  0.47334791  0.10002561  0.97312177    -0.07130
N371        N  0.43363845  0.41532169  0.96937568    -0.25880
H372        H  0.34137777  0.45313915  0.95161258     0.06700
N373        N  0.03031224  0.03981534  0.84933482    -0.47100
H374        H  0.49883007  0.13307376  0.97242944     0.06690
C375        C  0.99814249  0.99664579  0.55137180     0.42390
C376        C  0.08142548  0.13196879  0.89698716    -0.06630
Co377      Co  0.03494098  0.06682409  0.97299178     0.73820
N378        N  0.40923590  0.03849132  0.97329212    -0.46820
C379        C  0.07303671  0.43360091  0.90846509     0.42650
N380        N  0.12319186  0.08210233  0.98807625    -0.46810
Co381      Co  0.43664324  0.47294064  0.97257430     0.73890
C382        C  0.41765907  0.38198099  0.98728746    -0.07140
C383        C  0.46607532  0.47839432  0.84946548    -0.06700
N384        N  0.10035725  0.05619216  0.94580480    -0.26230
N385        N  0.37556325  0.43007798  0.89493683    -0.46990
H386        H  0.00180662  0.38000005  0.90873066     0.06660
C387        C  0.03028252  0.03241679  0.53437363    -0.07110
Cl388      Cl  0.49898674  0.00607852  0.94164807    -0.50120
C389        C  0.42720483  0.08123937  0.97256886     0.42420
H390        H  0.15743253  0.06162769  0.93029788     0.06630
N391        N  0.46533376  0.47191012  0.53381533    -0.46830
C392        C  0.42475825  0.07928806  0.65355271     0.42270
N393        N  0.47136498  0.06153235  0.65538509     0.01160
C394        C  0.43626677  0.36416373  0.69403769    -0.06720
H395        H  0.37607558  0.42024541  0.76295008     0.06650
C396        C  0.03401617  0.04457197  0.78279414    -0.07070
Co397      Co  0.43191489  0.46754843  0.66242658     0.74180
N398        N  0.40787101  0.44494763  0.72314086    -0.26250
Co399      Co  0.46487719  0.44605036  0.72651861     0.74070
C400        C  0.49847996  0.01534447  0.80103044     0.42370
N401        N  0.06301737  0.09885218  0.71410106     0.00770
N402        N  0.48713440  0.48970532  0.75934433     0.00880
N403        N  0.41418518  0.37759200  0.65247277    -0.47100
H404        H  0.36967828  0.00903622  0.65749829     0.06630
N405        N  0.39536249  0.45289953  0.69875854     0.01160
N406        N  0.02215175  0.44743455  0.72827510     0.00900
C407        C  0.06856389  0.42894684  0.72916465     0.42510
N408        N  0.05024483  0.10584983  0.68953565    -0.25710
C409        C  0.45987095  0.46531959  0.60048198    -0.06630
N410        N  0.46695131  0.09480557  0.65304517    -0.46810
N411        N  0.02644925  0.41404284  0.73012397    -0.47040
C412        C  0.99584072  0.99485694  0.58253241     0.42280
N413        N  0.43107069  0.41104549  0.66908207     0.01150
N414        N  0.08453000  0.06354144  0.66070008    -0.25730
N415        N  0.43465767  0.02505853  0.65744431    -0.26220
N416        N  0.09672974  0.05515582  0.68499262     0.00790
H417        H  0.11626223  0.08965206  0.62145272     0.06680
H418        H  0.12390101  0.49882362  0.72471697     0.06710
N419        N  0.44358303  0.40358486  0.69361496    -0.26270
N420        N  0.02420870  0.02596105  0.75747998    -0.25880
N421        N  0.00635967  0.01960037  0.62442491     0.01150
C422        C  0.34234699  0.43285981  0.72618864     0.42550
C423        C  0.05929783  0.14588553  0.68803026    -0.07130
N424        N  0.05896568  0.48377538  0.72611850    -0.25880
H425        H  0.06379128  0.07304376  0.78829497     0.06700
N426        N  0.35613255  0.44524816  0.69957696    -0.47100
H427        H  0.05299790  0.15998734  0.66993064     0.06690
C428        C  0.14976801  0.07551335  0.65788480     0.42390
C429        C  0.40325460  0.03291905  0.65637407    -0.06630
Co430      Co  0.02826575  0.06289845  0.65718963     0.73820
N431        N  0.08177993  0.13343874  0.72975501    -0.46820
C432        C  0.41757842  0.34726927  0.66665345     0.42650
N433        N  0.02297244  0.02778519  0.59888738    -0.46810
Co434      Co  0.06128814  0.04146583  0.72115411     0.73890
C435        C  0.09026197  0.47540243  0.72646121    -0.07140
C436        C  0.37634282  0.43187618  0.74178592    -0.06700
N437        N  0.46924029  0.48340638  0.62600490    -0.26230
N438        N  0.47103430  0.48197739  0.78502759    -0.46990
H439        H  0.44058988  0.34848915  0.71215238     0.06660
C440        C  0.11605298  0.07692421  0.64218855    -0.07110
Cl441      Cl  0.49652173  0.00452411  0.69188104    -0.50120
C442        C  0.08097713  0.16454287  0.71440456     0.42420
H443        H  0.43019718  0.43696475  0.59466954     0.06630
N444        N  0.13562307  0.06234999  0.68428324    -0.46830
C445        C  0.09517137  0.21510159  0.75165048    -0.20500
C446        C  0.09950830  0.20907085  0.72350385    -0.07060
C447        C  0.11956690  0.24504481  0.70516641     0.13800
C448        C  0.13501170  0.28583616  0.71589484    -0.20550
C449        C  0.13426588  0.29306484  0.74491373    -0.07070
C450        C  0.10916639  0.25549746  0.76219522     0.13790
C451        C  0.09067821  0.25408427  0.79027116    -0.23900
H452        H  0.07788780  0.18728043  0.76534707     0.15080
H453        H  0.15041996  0.31291593  0.70159634     0.15110
C454        C  0.12763813  0.24168057  0.67467921    -0.23850
H455        H  0.10971725  0.25094323  0.80741711     0.05320
H456        H  0.05763189  0.22610566  0.79197004     0.08550
H457        H  0.08684643  0.28120558  0.79283305     0.08550
H458        H  0.09764436  0.22812141  0.66239371     0.08530
H459        H  0.14187235  0.22186370  0.67271596     0.08530
H460        H  0.15018586  0.27340024  0.66510607     0.05310
C461        C  0.08978536  0.34030199  0.74693657    -0.20500
C462        C  0.13328544  0.35975530  0.73992608    -0.07060
C463        C  0.14924963  0.39543987  0.72079940     0.13800
C464        C  0.12802421  0.41787277  0.71840587    -0.20550
C465        C  0.08808698  0.40233487  0.73065848    -0.07070
C466        C  0.06756756  0.36139041  0.74349640     0.13790
C467        C  0.02333118  0.34045574  0.75539240    -0.23900
H468        H  0.07390579  0.30991442  0.75765146     0.15080
H469        H  0.14203336  0.44688538  0.70572519     0.15110
C470        C  0.18492815  0.40881645  0.70024733    -0.23850
H471        H  0.01313167  0.30917567  0.76562663     0.05320
H472        H  0.00011276  0.33470321  0.73830929     0.08550
H473        H  0.02234359  0.36106517  0.77154989     0.08550
H474        H  0.19499368  0.38571057  0.69857650     0.08530
H475        H  0.21254762  0.44068725  0.70552909     0.08530
H476        H  0.17371559  0.41100102  0.67876114     0.05310
C477        C  0.22629735  0.34561507  0.73374526    -0.20500
C478        C  0.20775418  0.36663559  0.74634354    -0.07060
C479        C  0.23678423  0.41068652  0.75319939     0.13800
C480        C  0.28035175  0.43080484  0.74684640    -0.20550
C481        C  0.29683668  0.40943409  0.73365326    -0.07070
C482        C  0.26967099  0.36635939  0.72714125     0.13790
C483        C  0.28670950  0.34176781  0.71373970    -0.23900
H484        H  0.20818876  0.31187909  0.73044436     0.15080
H485        H  0.30176882  0.46405546  0.75189867     0.15110
C486        C  0.22454565  0.43907311  0.76686897    -0.23850
H487        H  0.26134128  0.30806394  0.71014487     0.05320
H488        H  0.31137848  0.34200620  0.72761708     0.08550
H489        H  0.30100131  0.35651500  0.69305684     0.08550
H490        H  0.19028764  0.42508305  0.76907313     0.08530
H491        H  0.23613712  0.46855372  0.75390944     0.08530
H492        H  0.23966468  0.44815428  0.78798952     0.05310
C493        C  0.14431956  0.28544299  0.91766186    -0.20500
C494        C  0.13528307  0.29700544  0.89102359    -0.07060
C495        C  0.10094152  0.26298239  0.87536988     0.13800
C496        C  0.08798236  0.22074023  0.88200660    -0.20550
C497        C  0.10142501  0.21034250  0.90673864    -0.07070
C498        C  0.12870135  0.24285885  0.92543123     0.13790
C499        C  0.14289916  0.23314655  0.95305580    -0.23900
H500        H  0.16521205  0.31028316  0.93210145     0.15080
H501        H  0.06375569  0.19514861  0.86928344     0.15110
C502        C  0.07049559  0.26854223  0.85672591    -0.23850
H503        H  0.16659494  0.26264816  0.96405292     0.05320
H504        H  0.15789668  0.21442645  0.94929103     0.08550
H505        H  0.11528453  0.21487324  0.96722852     0.08550
H506        H  0.08502815  0.28517508  0.83721677     0.08530
H507        H  0.05834953  0.28596598  0.86765870     0.08530
H508        H  0.04212815  0.23758541  0.85057809     0.05310
C509        C  0.16259144  0.41085775  0.90455949    -0.20500
C510        C  0.13914797  0.36674768  0.89902339    -0.07060
C511        C  0.09601285  0.34516088  0.90915910     0.13800
C512        C  0.07539871  0.36785652  0.91055424    -0.20550
C513        C  0.09775901  0.41223502  0.90828349    -0.07070
C514        C  0.14275614  0.43418785  0.90785561     0.13790
C515        C  0.17040912  0.48191870  0.91014191    -0.23900
H516        H  0.19652886  0.42797320  0.90635214     0.15080
H517        H  0.04184723  0.35059923  0.91543263     0.15110
C518        C  0.07502624  0.30416212  0.92659088    -0.23850
H519        H  0.20484117  0.49324726  0.90993515     0.05320
H520        H  0.16389038  0.49210765  0.93019336     0.08550
H521        H  0.16420808  0.49748553  0.89199462     0.08550
H522        H  0.09722710  0.30618518  0.94339681     0.08530
H523        H  0.06289584  0.27525609  0.91420039     0.08530
H524        H  0.04668952  0.29908536  0.93795717     0.05310
C525        C  0.28381271  0.43180219  0.88398706    -0.20500
C526        C  0.29972848  0.40956153  0.89778815    -0.07060
C527        C  0.27271429  0.36596743  0.90332631     0.13800
C528        C  0.22934696  0.34629647  0.89657928    -0.20550
C529        C  0.21012571  0.36928759  0.88690408    -0.07070
C530        C  0.24041688  0.41239330  0.87720132     0.13790
C531        C  0.23082851  0.44015352  0.85860738    -0.23900
H532        H  0.30576681  0.46494284  0.87821166     0.15080
H533        H  0.21193320  0.31214554  0.89732947     0.15110
C534        C  0.28969313  0.33996027  0.91615110    -0.23850
H535        H  0.24660684  0.44545786  0.83800672     0.05320
H536        H  0.24350797  0.47157791  0.86848807     0.08550
H537        H  0.19717879  0.42737479  0.85476503     0.08550
H538        H  0.30440540  0.35283346  0.93699828     0.08530
H539        H  0.31402877  0.34126059  0.90214684     0.08530
H540        H  0.26416799  0.30603246  0.91930476     0.05310
C541        C  0.14063726  0.36328857  0.80165699    -0.20500
C542        C  0.16016195  0.34433800  0.78778883    -0.07060
C543        C  0.18020846  0.32812545  0.80561845     0.13800
C544        C  0.17662977  0.32817125  0.83486557    -0.20550
C545        C  0.15677323  0.34652398  0.84877228    -0.07070
C546        C  0.13729271  0.36358226  0.83114251     0.13790
C547        C  0.11056544  0.38007636  0.84186981    -0.23900
H548        H  0.12748495  0.37874298  0.78962790     0.15080
H549        H  0.19033036  0.31351190  0.84749143     0.15110
C550        C  0.20596940  0.31030007  0.79504985    -0.23850
H551        H  0.09577068  0.38874371  0.82451620     0.05320
H552        H  0.12989148  0.40934570  0.85395065     0.08550
H553        H  0.08383451  0.35520575  0.85443082     0.08550
H554        H  0.23685055  0.33655957  0.78694348     0.08530
H555        H  0.18854558  0.28583567  0.77897069     0.08530
H556        H  0.21409404  0.29457778  0.81210755     0.05310
C557        C  0.22504194  0.11782417  0.67225199    -0.20500
C558        C  0.19507468  0.09694138  0.65070910    -0.07060
C559        C  0.20896765  0.09575977  0.62365571     0.13800
C560        C  0.25259237  0.11753391  0.61844491    -0.20550
C561        C  0.28368723  0.14050790  0.63963811    -0.07070
C562        C  0.26880917  0.13870484  0.66748448     0.13790
C563        C  0.29739922  0.15763204  0.69303006    -0.23900
H564        H  0.21427418  0.11787622  0.69329800     0.15080
H565        H  0.26161300  0.11549659  0.59740840     0.15110
C566        C  0.17834104  0.07038352  0.60027141    -0.23850
H567        H  0.28593474  0.13360729  0.71046044     0.05320
H568        H  0.29649295  0.18550407  0.70016805     0.08550
H569        H  0.33071182  0.16720527  0.68942625     0.08550
H570        H  0.16062973  0.08547267  0.59300911     0.08530
H571        H  0.15585419  0.03721457  0.60765895     0.08530
H572        H  0.19508401  0.06883081  0.58162764     0.05310
C573        C  0.39184007  0.23495397  0.65733832    -0.20500
C574        C  0.35070527  0.21384698  0.64468401    -0.07060
C575        C  0.32945876  0.23754721  0.64457192     0.13800
C576        C  0.35282428  0.28116709  0.65110167    -0.20550
C577        C  0.39558427  0.30206909  0.65907078    -0.07070
C578        C  0.41526350  0.27858762  0.66249583     0.13790
C579        C  0.46169559  0.29948932  0.67063546    -0.23900
H580        H  0.40679907  0.21816234  0.66434191     0.15080
H581        H  0.33727531  0.29919840  0.65048754     0.15110
C582        C  0.28263009  0.21951843  0.63809120    -0.23850
H583        H  0.47294055  0.27696963  0.66976292     0.05320
H584        H  0.46702650  0.31127077  0.69237817     0.08550
H585        H  0.48142839  0.32640659  0.65587609     0.08550
H586        H  0.26332101  0.20395865  0.65709428     0.08530
H587        H  0.27076909  0.19762665  0.62018077     0.08530
H588        H  0.27649933  0.24509563  0.63209632     0.05310
C589        C  0.36278263  0.08554597  0.66155388    -0.20500
C590        C  0.40423122  0.10465598  0.65170028    -0.07060
C591        C  0.42280959  0.14481925  0.63827857     0.13800
C592        C  0.39882377  0.16396466  0.63462470    -0.20550
C593        C  0.35569380  0.14476357  0.64345259    -0.07070
C594        C  0.33708306  0.10250542  0.65608585     0.13790
C595        C  0.29022640  0.07049940  0.66118416    -0.23900
H596        H  0.34916185  0.05497276  0.67230772     0.15080
H597        H  0.41315004  0.19364908  0.62265391     0.15110
C598        C  0.46709130  0.16703159  0.62633376    -0.23850
H599        H  0.28364717  0.03823464  0.66688311     0.05320
H600        H  0.27128951  0.06529478  0.64175352     0.08550
H601        H  0.27848196  0.07898082  0.67940829     0.08550
H602        H  0.46909764  0.14653532  0.61055500     0.08530
H603        H  0.49062009  0.17419667  0.64351116     0.08530
H604        H  0.47594436  0.19768407  0.61565909     0.05310
C605        C  0.21513678  0.07999339  0.99726633    -0.20500
C606        C  0.19956212  0.10339444  0.98469559    -0.07060
C607        C  0.22731372  0.14707774  0.97950047     0.13800
C608        C  0.27073448  0.16617269  0.98633744    -0.20550
C609        C  0.28881984  0.14271179  0.99722040    -0.07070
C610        C  0.25838343  0.09855443  0.00422631     0.13790
C611        C  0.26809092  0.06839999  0.51932670    -0.23900
H612        H  0.19303298  0.04638255  0.00168836     0.15080
H613        H  0.28967582  0.20023214  0.98375340     0.15110
C614        C  0.21100774  0.17368458  0.96674281    -0.23850
H615        H  0.25138843  0.05835872  0.53984376     0.05320
H616        H  0.30159533  0.08207982  0.52328755     0.08550
H617        H  0.25725606  0.03977127  0.00638412     0.08550
H618        H  0.18657470  0.17239916  0.98064816     0.08530
H619        H  0.19654137  0.16127421  0.94576783     0.08530
H620        H  0.23681706  0.20756445  0.96392403     0.05310
C621        C  0.38519149  0.24842268  0.51495537    -0.20500
C622        C  0.36206756  0.21538376  0.99520791    -0.07060
C623        C  0.36398971  0.22897929  0.96645600     0.13800
C624        C  0.38307100  0.27264316  0.95979283    -0.20550
C625        C  0.40156605  0.30390431  0.98048875    -0.07070
C626        C  0.40425339  0.29162617  0.00824478     0.13790
C627        C  0.42949926  0.32369835  0.53080342    -0.23900
H628        H  0.39105628  0.24122728  0.53599577     0.15080
H629        H  0.38271523  0.28228416  0.93808605     0.15110
C630        C  0.34526222  0.19919795  0.94196622    -0.23850
H631        H  0.43384543  0.30853687  0.55000105     0.05320
H632        H  0.41256661  0.33933174  0.53743724     0.08550
H633        H  0.46165647  0.34779772  0.02298426     0.08550
H634        H  0.32177426  0.20449383  0.93067096     0.08530
H635        H  0.32856103  0.16528194  0.94798263     0.08530
H636        H  0.37101534  0.20584087  0.92718399     0.05310
C637        C  0.34203044  0.11041634  0.97554991    -0.20500
C638        C  0.36350316  0.14835741  0.99134571    -0.07060
C639        C  0.40894809  0.16793761  0.99399781     0.13800
C640        C  0.42796853  0.14541458  0.98645437    -0.20550
C641        C  0.40459230  0.10439972  0.97577818    -0.07070
C642        C  0.36131799  0.08747252  0.96883280     0.13790
C643        C  0.33518428  0.04543245  0.95428564    -0.23900
H644        H  0.30932243  0.09711531  0.46920800     0.15080
H645        H  0.46163118  0.15957305  0.99045638     0.15110
C646        C  0.43912829  0.21137776  0.00607842    -0.23850
H647        H  0.30262606  0.03818670  0.44897784     0.05320
H648        H  0.33168336  0.01926190  0.46825471     0.08550
H649        H  0.35082968  0.04613458  0.93441196     0.08550
H650        H  0.42978188  0.21325102  0.02765332     0.08530
H651        H  0.44116075  0.23654309  0.99180813     0.08530
H652        H  0.47231161  0.21869151  0.00802448     0.05310
C653        C  0.34192168  0.13950129  0.58537703    -0.20500
C654        C  0.33663856  0.17051809  0.59865537    -0.06880
C655        C  0.32873962  0.19631149  0.57964801     0.13800
C656        C  0.31940511  0.18432421  0.55146402    -0.20550
C657        C  0.33754466  0.16369972  0.53820130    -0.07070
C658        C  0.35124015  0.14184845  0.55674963     0.13790
C659        C  0.37676903  0.12190555  0.54941907    -0.23900
H660        H  0.34184325  0.11437617  0.59748525     0.15080
H661        H  0.30743801  0.20036713  0.53844287     0.15110
C662        C  0.34339528  0.24241978  0.58413330    -0.23850
H663        H  0.37825033  0.10260551  0.56721303     0.05320
H664        H  0.41034304  0.14713198  0.54590340     0.08550
H665        H  0.36430231  0.10002923  0.53159983     0.08550
H666        H  0.37145025  0.25810223  0.59830517     0.08530
H667        H  0.31691377  0.24623822  0.58994748     0.08530
H668        H  0.35508694  0.26141117  0.56433746     0.05310
C669        C  0.33833499  0.66691075  0.00512579    -0.02680
C670        C  0.33147135  0.66761050  0.13200823    -0.02680
C671        C  0.15955136  0.84538041  0.38183871    -0.02680
C672        C  0.15904258  0.84111362  0.25463381    -0.02680
C673        C  0.08239770  0.66499172  0.41384225     0.42270
N674        N  0.05506494  0.60749681  0.43827175     0.01160
C675        C  0.02658677  0.91332160  0.40861140    -0.06720
H676        H  0.43727149  0.94958830  0.34302056     0.06650
C677        C  0.35874354  0.94973661  0.43490776    -0.07070
Co678      Co  0.06092556  0.53970327  0.41042341     0.74180
N679        N  0.48325898  0.98577197  0.37539738    -0.26250
Co680      Co  0.46325749  0.94488001  0.41054613     0.74070
C681        C  0.34436579  0.93292298  0.40691961     0.42370
N682        N  0.44096760  0.53147169  0.47380932     0.00770
N683        N  0.40736073  0.94546551  0.41342865     0.00880
N684        N  0.08959803  0.97601253  0.40841135    -0.47100
H685        H  0.09498303  0.63461550  0.37652846     0.06630
N686        N  0.02038086  0.52212934  0.37496499     0.01160
N687        N  0.44395422  0.90482972  0.44583976     0.00900
C688        C  0.41960075  0.84902278  0.47217219     0.42510
N689        N  0.47869136  0.56696876  0.47383497    -0.25710
C690        C  0.14001004  0.56400720  0.44742025    -0.06630
N691        N  0.06551794  0.64754181  0.43898236    -0.46810
N692        N  0.43555899  0.86532635  0.44650840    -0.47040
C693        C  0.15479731  0.58065908  0.47541880     0.42280
N694        N  0.05712335  0.98170030  0.40869989     0.01150
N695        N  0.01388250  0.52568248  0.00818661    -0.25730
N696        N  0.06441835  0.59751906  0.41413635    -0.26220
N697        N  0.47626650  0.98991423  0.00831905     0.00790
H698        H  0.05922921  0.56079816  0.04116425     0.06680
H699        H  0.40344801  0.88040682  0.00724814     0.06710
N700        N  0.01994450  0.94558562  0.40896097    -0.26270
N701        N  0.39787684  0.95638042  0.43712333    -0.25880
N702        N  0.09085794  0.56611957  0.46993628     0.01150
C703        C  0.49717720  0.51425488  0.33217687     0.42550
C704        C  0.47334219  0.60001932  0.47311844    -0.07130
N705        N  0.43363234  0.91531566  0.46937410    -0.25880
H706        H  0.34137030  0.95313347  0.45161302     0.06700
N707        N  0.03031680  0.53981378  0.34933495    -0.47100
H708        H  0.49882369  0.63306765  0.47242486     0.06690
C709        C  0.99814879  0.49665099  0.05137185     0.42390
C710        C  0.08142592  0.63196880  0.39698736    -0.06630
Co711      Co  0.03494018  0.56682333  0.47299144     0.73820
N712        N  0.40923149  0.53848369  0.47329124    -0.46820
C713        C  0.07303122  0.93359984  0.40846576     0.42650
N714        N  0.12319256  0.58210705  0.48807874    -0.46810
Co715      Co  0.43663594  0.97293441  0.47257435     0.73890
C716        C  0.41765450  0.88197354  0.48728480    -0.07140
C717        C  0.46606637  0.97839252  0.34946637    -0.06700
N718        N  0.10036127  0.55619576  0.44580693    -0.26230
N719        N  0.37555674  0.93007573  0.39493619    -0.46990
H720        H  0.00180136  0.87999865  0.40873038     0.06660
C721        C  0.03028948  0.53242140  0.03437363    -0.07110
Cl722      Cl  0.49898797  0.50607702  0.44164797    -0.50120
C723        C  0.42719859  0.58123148  0.47256648     0.42420
H724        H  0.15743963  0.56163463  0.43030258     0.06630
N725        N  0.46533093  0.97191298  0.03381601    -0.46830
C726        C  0.42476579  0.57929120  0.15355677     0.42270
N727        N  0.47137210  0.56153499  0.15538783     0.01160
C728        C  0.43626165  0.86416252  0.19403483    -0.06720
H729        H  0.37606436  0.92024169  0.26295067     0.06650
C730        C  0.03402200  0.54456917  0.28279430    -0.07070
Co731      Co  0.43190521  0.96754664  0.16242750     0.74180
N732        N  0.40785992  0.94494338  0.22314142    -0.26250
Co733      Co  0.46486628  0.94604648  0.22651933     0.74070
C734        C  0.49848533  0.51533958  0.30103011     0.42370
N735        N  0.06302353  0.59885222  0.21410302     0.00770
N736        N  0.48712281  0.98970108  0.25934563     0.00880
N737        N  0.41418026  0.87759301  0.15247057    -0.47100
H738        H  0.36968546  0.50903951  0.15750209     0.06630
N739        N  0.39535182  0.95289590  0.19875917     0.01160
N740        N  0.02214072  0.94743135  0.22827657     0.00900
C741        C  0.06855291  0.92894386  0.22916616     0.42510
N742        N  0.05025062  0.60584987  0.18953778    -0.25710
C743        C  0.45986392  0.96532098  0.10048267    -0.06630
N744        N  0.46695872  0.59480842  0.15304841    -0.46810
N745        N  0.02643828  0.91403971  0.23012512    -0.47040
C746        C  0.99584701  0.49486191  0.08253247     0.42280
N747        N  0.43106192  0.91104414  0.16908179     0.01150
N748        N  0.08453739  0.56354392  0.16070091    -0.25730
N749        N  0.43466471  0.52506137  0.15744732    -0.26220
N750        N  0.09673725  0.55515791  0.18499327     0.00790
H751        H  0.11626954  0.58965497  0.12145364     0.06680
H752        H  0.12389002  0.99882088  0.22471955     0.06710
N753        N  0.44357389  0.90358225  0.19361445    -0.26270
N754        N  0.02421558  0.52595829  0.25748018    -0.25880
N755        N  0.00636651  0.51960402  0.12442537     0.01150
C756        C  0.34233645  0.93285709  0.22618925     0.42550
C757        C  0.05930071  0.64588445  0.18803309    -0.07130
N758        N  0.05895458  0.98377236  0.22612056    -0.25880
H759        H  0.06379614  0.57304205  0.28829516     0.06700
N760        N  0.35612222  0.94524547  0.19957760    -0.47100
H761        H  0.05299891  0.65998551  0.16993390     0.06690
C762        C  0.14977523  0.57551527  0.15788540     0.42390
C763        C  0.40326185  0.53292218  0.15637800    -0.06630
Co764      Co  0.02827266  0.56290049  0.15719103     0.73820
N765        N  0.08178390  0.63343829  0.22975761    -0.46820
C766        C  0.41757607  0.84727073  0.16664955     0.42650
N767        N  0.02297920  0.52778950  0.09888778    -0.46810
Co768      Co  0.06129544  0.54146576  0.22115457     0.73890
C769        C  0.09025096  0.97539955  0.22646336    -0.07140
C770        C  0.37633175  0.93187236  0.24178644    -0.06700
N771        N  0.46923182  0.98340675  0.12600595    -0.26230
N772        N  0.47102277  0.98197367  0.28502890    -0.46990
H773        H  0.44058737  0.84848696  0.21214794     0.06660
C774        C  0.11606035  0.57692687  0.14218936    -0.07110
Cl775      Cl  0.49652902  0.50452446  0.19188112    -0.50120
C776        C  0.08097891  0.66454167  0.21440750     0.42420
H777        H  0.43019076  0.93696593  0.09466958     0.06630
N778        N  0.13563040  0.56235164  0.18428376    -0.46830
C779        C  0.09516776  0.71509985  0.25165300    -0.20500
C780        C  0.09950653  0.70906922  0.22350663    -0.07060
C781        C  0.11956161  0.74504283  0.20516856     0.13800
C782        C  0.13500188  0.78583370  0.21589619    -0.20550
C783        C  0.13425581  0.79306259  0.24491492    -0.07070
C784        C  0.10915810  0.75549527  0.26219672     0.13790
C785        C  0.09066700  0.75408114  0.29027168    -0.23900
H786        H  0.07788574  0.68727884  0.26534991     0.15080
H787        H  0.15040816  0.81291327  0.20159739     0.15110
C788        C  0.12763471  0.74167936  0.17468160    -0.23850
H789        H  0.10970278  0.75093654  0.30741846     0.05320
H790        H  0.05761937  0.72610415  0.29196792     0.08550
H791        H  0.08683792  0.78120394  0.29283433     0.08550
H792        H  0.09764143  0.72811908  0.16239544     0.08530
H793        H  0.14187083  0.72186413  0.17271886     0.08530
H794        H  0.15018169  0.77339945  0.16510869     0.05310
C795        C  0.08977458  0.84029911  0.24693767    -0.20500
C796        C  0.13327477  0.85975282  0.23992733    -0.07060
C797        C  0.14923890  0.89543754  0.22080081     0.13800
C798        C  0.12801358  0.91787049  0.21840760    -0.20550
C799        C  0.08807596  0.90233191  0.23065972    -0.07070
C800        C  0.06755611  0.86138678  0.24349673     0.13790
C801        C  0.02331807  0.84045009  0.25539027    -0.23900
H802        H  0.07389507  0.80991138  0.25765241     0.15080
H803        H  0.14202292  0.94688348  0.20572731     0.15110
C804        C  0.18491710  0.90881412  0.20024848    -0.23850
H805        H  0.01311822  0.80916950  0.26562380     0.05320
H806        H  0.00010161  0.83469805  0.23830575     0.08550
H807        H  0.02232755  0.86105779  0.27154781     0.08550
H808        H  0.19498241  0.88570810  0.19857735     0.08530
H809        H  0.21253674  0.94068483  0.20553020     0.08530
H810        H  0.17370429  0.91099889  0.17876241     0.05310
C811        C  0.22628678  0.84561300  0.23374580    -0.20500
C812        C  0.20774371  0.86663345  0.24634430    -0.07060
C813        C  0.23677384  0.91068437  0.25320015     0.13800
C814        C  0.28034135  0.93080263  0.24684705    -0.20550
C815        C  0.29682610  0.90943182  0.23365373    -0.07070
C816        C  0.26966025  0.86635726  0.22714153     0.13790
C817        C  0.28669840  0.84176567  0.21373951    -0.23900
H818        H  0.20817844  0.81187702  0.23044505     0.15080
H819        H  0.30175853  0.96405318  0.25189942     0.15110
C820        C  0.22453532  0.93907092  0.26686990    -0.23850
H821        H  0.26133002  0.80806191  0.21014452     0.05320
H822        H  0.31136741  0.84200368  0.22761665     0.08550
H823        H  0.30099006  0.85651312  0.19305668     0.08550
H824        H  0.19027732  0.92508074  0.26907428     0.08530
H825        H  0.23612658  0.96855149  0.25391036     0.08530
H826        H  0.23965460  0.94815216  0.28799036     0.05310
C827        C  0.14431437  0.78544156  0.41766244    -0.20500
C828        C  0.13527655  0.79700397  0.39102460    -0.07060
C829        C  0.10093466  0.76298084  0.37537117     0.13800
C830        C  0.08797647  0.72073879  0.38200740    -0.20550
C831        C  0.10142114  0.71034126  0.40673860    -0.07070
C832        C  0.12869777  0.74285753  0.42543115     0.13790
C833        C  0.14289773  0.73314524  0.45305485    -0.23900
H834        H  0.16520725  0.81028172  0.43210191     0.15080
H835        H  0.06374941  0.69514707  0.36928450     0.15110
C836        C  0.07048796  0.76854047  0.35672790    -0.23850
H837        H  0.16659349  0.76264687  0.46405196     0.05320
H838        H  0.15789601  0.71442617  0.44928884     0.08550
H839        H  0.11528403  0.71487085  0.46722814     0.08550
H840        H  0.08501960  0.78517274  0.33721837     0.08530
H841        H  0.05834267  0.78596469  0.36766100     0.08530
H842        H  0.04212010  0.73758354  0.35058074     0.05310
C843        C  0.16258590  0.91085673  0.40456048    -0.20500
C844        C  0.13914220  0.86674651  0.39902483    -0.07060
C845        C  0.09600755  0.84515995  0.40916133     0.13800
C846        C  0.07539347  0.86785563  0.41055674    -0.20550
C847        C  0.09775363  0.91223406  0.40828498    -0.07070
C848        C  0.14275071  0.93418693  0.40785659     0.13790
C849        C  0.17040368  0.98191788  0.41014215    -0.23900
H850        H  0.19652336  0.92797217  0.40635273     0.15080
H851        H  0.04184223  0.85059853  0.41543583     0.15110
C852        C  0.07502154  0.80416133  0.42659323    -0.23850
H853        H  0.20483573  0.99324647  0.40993507     0.05320
H854        H  0.16388544  0.99210752  0.43019350     0.08550
H855        H  0.16420210  0.99748405  0.39199472     0.08550
H856        H  0.09722307  0.80618441  0.44339866     0.08530
H857        H  0.06289057  0.77525522  0.41420271     0.08530
H858        H  0.04668534  0.79908478  0.43796010     0.05310
C859        C  0.28380620  0.93180013  0.38398706    -0.20500
C860        C  0.29972193  0.90955903  0.39778762    -0.07060
C861        C  0.27270774  0.86596477  0.40332515     0.13800
C862        C  0.22934040  0.84629417  0.39657839    -0.20550
C863        C  0.21011916  0.86928572  0.38690414    -0.07070
C864        C  0.24041031  0.91239145  0.37720148     0.13790
C865        C  0.23082184  0.94015180  0.35860775    -0.23900
H866        H  0.30576031  0.96494090  0.37821196     0.15080
H867        H  0.21192653  0.81214321  0.39732804     0.15110
C868        C  0.28968659  0.83995706  0.41614900    -0.23850
H869        H  0.24660021  0.94545640  0.33800708     0.05320
H870        H  0.24350126  0.97157608  0.36848858     0.08550
H871        H  0.19717208  0.92737294  0.35476538     0.08550
H872        H  0.30439900  0.85282937  0.43699629     0.08530
H873        H  0.31402210  0.84125790  0.40214434     0.08530
H874        H  0.26416142  0.80602915  0.41930219     0.05310
C875        C  0.14062759  0.86328612  0.30165827    -0.20500
C876        C  0.16015203  0.84433557  0.28778979    -0.07060
C877        C  0.18019856  0.82812263  0.30561902     0.13800
C878        C  0.17662070  0.82816866  0.33486614    -0.20550
C879        C  0.15676520  0.84652208  0.34877324    -0.07070
C880        C  0.13728421  0.86358031  0.33114388     0.13790
C881        C  0.11055776  0.88007496  0.34187174    -0.23900
H882        H  0.12747461  0.87874006  0.28962935     0.15080
H883        H  0.19032137  0.81350912  0.34749170     0.15110
C884        C  0.20595973  0.81029766  0.29505010    -0.23850
H885        H  0.09576236  0.88874210  0.32451844     0.05320
H886        H  0.12988467  0.90934459  0.35395215     0.08550
H887        H  0.08382734  0.85520476  0.35443330     0.08550
H888        H  0.23684079  0.83655744  0.28694380     0.08530
H889        H  0.18853617  0.78583340  0.27897086     0.08530
H890        H  0.21408464  0.79457533  0.31210761     0.05310
C891        C  0.22505012  0.61782057  0.17225185    -0.20500
C892        C  0.19508144  0.59694062  0.15070912    -0.07060
C893        C  0.20897255  0.59575917  0.12365508     0.13800
C894        C  0.25259679  0.61753275  0.11844314    -0.20550
C895        C  0.28369304  0.64050661  0.13963567    -0.07070
C896        C  0.26881709  0.63870130  0.16748297     0.13790
C897        C  0.29740913  0.65762589  0.19302802    -0.23900
H898        H  0.21428382  0.61787121  0.19329858     0.15080
H899        H  0.26161595  0.61549519  0.09740622     0.15110
C900        C  0.17834448  0.57038367  0.10027120    -0.23850
H901        H  0.28595034  0.63359657  0.21045541     0.05320
H902        H  0.29649710  0.68549219  0.20017168     0.08550
H903        H  0.33072357  0.66720802  0.18942121     0.08550
H904        H  0.16063445  0.58547430  0.09300922     0.08530
H905        H  0.15585667  0.53721505  0.10765892     0.08530
H906        H  0.19508613  0.56882972  0.08162710     0.05310
C907        C  0.39185096  0.73496192  0.15732566    -0.20500
C908        C  0.35071027  0.71384828  0.14467942    -0.07060
C909        C  0.32945921  0.73754446  0.14457365     0.13800
C910        C  0.35282252  0.78116446  0.15110319    -0.20550
C911        C  0.39558549  0.80207178  0.15906469    -0.07070
C912        C  0.41527155  0.77859612  0.16248212     0.13790
C913        C  0.46170752  0.79950528  0.17061327    -0.23900
H914        H  0.40681698  0.71817563  0.16432512     0.15080
H915        H  0.33726944  0.79919188  0.15049511     0.15110
C916        C  0.28262758  0.71951238  0.13810159    -0.23850
H917        H  0.47295655  0.77698912  0.16973845     0.05320
H918        H  0.46704645  0.81129215  0.19235499     0.08550
H919        H  0.48143124  0.82642042  0.15585018     0.08550
H920        H  0.26332734  0.70395901  0.15710902     0.08530
H921        H  0.27075835  0.69761556  0.12019403     0.08530
H922        H  0.27649377  0.74508733  0.13210611     0.05310
C923        C  0.36279022  0.58554970  0.16155545    -0.20500
C924        C  0.40423874  0.60465890  0.15170207    -0.07060
C925        C  0.42281557  0.64481920  0.13827643     0.13800
C926        C  0.39882903  0.66396350  0.13462004    -0.20550
C927        C  0.35569961  0.64476398  0.14344879    -0.07070
C928        C  0.33708908  0.60250603  0.15608259     0.13790
C929        C  0.29023122  0.57049471  0.16117277    -0.23900
H930        H  0.34916983  0.55497792  0.17231126     0.15080
H931        H  0.41315409  0.69364514  0.12264617     0.15110
C932        C  0.46709616  0.66702908  0.12632996    -0.23850
H933        H  0.28365374  0.53822966  0.16686873     0.05320
H934        H  0.27130152  0.56529372  0.14173902     0.08550
H935        H  0.27847708  0.57896779  0.17939576     0.08550
H936        H  0.46910114  0.64652926  0.11055344     0.08530
H937        H  0.49062656  0.67419805  0.14350689     0.08530
H938        H  0.47594806  0.69767919  0.11565220     0.05310
C939        C  0.21513832  0.57999815  0.49727376    -0.20500
C940        C  0.19956468  0.60340060  0.48470335    -0.07060
C941        C  0.22731646  0.64708568  0.47951445     0.13800
C942        C  0.27073656  0.66617967  0.48635411    -0.20550
C943        C  0.28882206  0.64271633  0.49723229    -0.07070
C944        C  0.25838436  0.59855879  0.50423670     0.13790
C945        C  0.26809975  0.56840027  0.01932175    -0.23900
H946        H  0.19303425  0.54638662  0.50169329     0.15080
H947        H  0.28967806  0.70023997  0.48377477     0.15110
C948        C  0.21101171  0.67369523  0.46675979    -0.23850
H949        H  0.25139891  0.55835906  0.03983938     0.05320
H950        H  0.30160460  0.58208066  0.02328139     0.08550
H951        H  0.25725785  0.53977607  0.50639469     0.08550
H952        H  0.18657587  0.67240510  0.48066470     0.08530
H953        H  0.19654912  0.66129071  0.44578309     0.08530
H954        H  0.23682104  0.70757602  0.46394541     0.05310
C955        C  0.38518860  0.74842354  0.01495563    -0.20500
C956        C  0.36207300  0.71538346  0.49520879    -0.07060
C957        C  0.36398016  0.72897306  0.46645681     0.13800
C958        C  0.38305767  0.77263586  0.45979097    -0.20550
C959        C  0.40156818  0.80390080  0.48048376    -0.07070
C960        C  0.40427691  0.79162854  0.50823707     0.13790
C961        C  0.42948228  0.82369763  0.03080826    -0.23900
H962        H  0.39105075  0.74122761  0.03599665     0.15080
H963        H  0.38268792  0.78227316  0.43808514     0.15110
C964        C  0.34523954  0.69918641  0.44197052    -0.23850
H965        H  0.43382621  0.80853582  0.05000658     0.05320
H966        H  0.41254206  0.83932433  0.03743991     0.08550
H967        H  0.46170368  0.84779487  0.52295493     0.08550
H968        H  0.32174237  0.70447660  0.43068313     0.08530
H969        H  0.32854634  0.66527168  0.44798973     0.08530
H970        H  0.37098405  0.70582936  0.42718048     0.05310
C971        C  0.34202449  0.61040978  0.47555744    -0.20500
C972        C  0.36350248  0.64835412  0.49134991    -0.07060
C973        C  0.40894815  0.66793256  0.49399708     0.13800
C974        C  0.42796489  0.64540729  0.48645155    -0.20550
C975        C  0.40458557  0.60439120  0.47577832    -0.07070
C976        C  0.36130932  0.58746357  0.46883850     0.13790
C977        C  0.33517105  0.54542089  0.45429516    -0.23900
H978        H  0.30933122  0.59711952  0.96920274     0.15080
H979        H  0.46162831  0.65956570  0.49044971     0.15110
C980        C  0.43913499  0.71137350  0.50607417    -0.23850
H981        H  0.30263785  0.53819294  0.94897201     0.05320
H982        H  0.33169412  0.51926843  0.96825034     0.08550
H983        H  0.35080993  0.54611972  0.43441919     0.08550
H984        H  0.42979769  0.71324914  0.52765121     0.08530
H985        H  0.44116559  0.73653805  0.49180405     0.08530
H986        H  0.47231832  0.71868590  0.50801493     0.05310
C987        C  0.34192808  0.63950235  0.08537317    -0.20500
C988        C  0.33664078  0.67051658  0.09865146    -0.06880
C989        C  0.32873353  0.69630408  0.07964399     0.13800
C990        C  0.31940174  0.68431685  0.05145996    -0.20550
C991        C  0.33754731  0.66369817  0.03819748    -0.07070
C992        C  0.35124620  0.64184988  0.05674570     0.13790
C993        C  0.37677795  0.62191022  0.04941487    -0.23900
H994        H  0.34185258  0.61437870  0.09748127     0.15080
H995        H  0.30743022  0.70035555  0.03843863     0.15110
C996        C  0.34337074  0.74240720  0.08413038    -0.23850
H997        H  0.37826082  0.60261077  0.06720861     0.05320
H998        H  0.41035135  0.64713844  0.04589935     0.08550
H999        H  0.36431243  0.60003414  0.03159548     0.08550
H1000       H  0.37142840  0.75809943  0.09829929     0.08530
H1001       H  0.31688138  0.74621097  0.08994800     0.08530
H1002       H  0.35505283  0.76139947  0.06433394     0.05310
C1003       C  0.33833502  0.66691055  0.50512996    -0.02680
C1004       C  0.33147384  0.66761160  0.63201242    -0.02680
C1005       C  0.15955432  0.84538204  0.88183772    -0.02680
C1006       C  0.15904456  0.84111468  0.75463257    -0.02680
C1007       C  0.08240221  0.66499359  0.91384165     0.42270
N1008       N  0.05506884  0.60749887  0.93827136     0.01160
C1009       C  0.02658727  0.91332155  0.90861063    -0.06720
H1010       H  0.43727423  0.94959097  0.84301935     0.06650
C1011       C  0.35874725  0.94974205  0.93490797    -0.07070
Co1012     Co  0.06092699  0.53970374  0.91042308     0.74180
N1013       N  0.48326114  0.98577392  0.87539669    -0.26250
Co1014     Co  0.46325925  0.94488215  0.91054616     0.74070
C1015       C  0.34436874  0.93292726  0.90692009     0.42370
N1016       N  0.44097260  0.53147774  0.97380881     0.00770
N1017       N  0.40736363  0.94546953  0.91342894     0.00880
N1018       N  0.08959862  0.97601229  0.90840934    -0.47100
H1019       H  0.09498577  0.63461616  0.87652773     0.06630
N1020       N  0.02038254  0.52213042  0.87496502     0.01160
N1021       N  0.44395593  0.90483279  0.94584070     0.00900
C1022       C  0.41960178  0.84902660  0.97217449     0.42510
N1023       N  0.47869680  0.56697428  0.97383508    -0.25710
C1024       C  0.14000954  0.56400387  0.94741907    -0.06630
N1025       N  0.06552264  0.64754411  0.93898185    -0.46810
N1026       N  0.43556016  0.86532923  0.94651043    -0.47040
C1027       C  0.15479770  0.58065540  0.97541735     0.42280
N1028       N  0.05712413  0.98170029  0.90869819     0.01150
N1029       N  0.01387969  0.52567895  0.50818638    -0.25730
N1030       N  0.06442133  0.59752039  0.91413590    -0.26220
N1031       N  0.47626300  0.98991044  0.50831862     0.00790
H1032       H  0.05922668  0.56079477  0.54116380     0.06680
H1033       H  0.40344568  0.88039965  0.50724716     0.06710
N1034       N  0.01994519  0.94558581  0.90896003    -0.26270
N1035       N  0.39788054  0.95638569  0.93712344    -0.25880
N1036       N  0.09085979  0.56611963  0.96993565     0.01150
C1037       C  0.49717970  0.51425747  0.83217725     0.42550
C1038       C  0.47334876  0.60002564  0.97311898    -0.07130
N1039       N  0.43363450  0.91531995  0.96937469    -0.25880
H1040       H  0.34137435  0.95313937  0.95161324     0.06700
N1041       N  0.03031876  0.53981555  0.84933520    -0.47100
H1042       H  0.49883064  0.63307386  0.97242602     0.06690
C1043       C  0.99814735  0.49664671  0.55137138     0.42390
C1044       C  0.08142924  0.63197000  0.89698676    -0.06630
Co1045     Co  0.03494365  0.56682602  0.97299123     0.73820
N1046       N  0.40923731  0.53849080  0.97329043    -0.46820
C1047       C  0.07303179  0.93359963  0.90846427     0.42650
N1048       N  0.12319471  0.58210589  0.98807776    -0.46810
Co1049     Co  0.43663992  0.97293944  0.97257449     0.73890
C1050       C  0.41765632  0.88197868  0.98728606    -0.07140
C1051       C  0.46606913  0.97839495  0.84946544    -0.06700
N1052       N  0.10036187  0.55619487  0.94580622    -0.26230
N1053       N  0.37555929  0.93007928  0.89493678    -0.46990
H1054       H  0.00180180  0.87999861  0.90873025     0.06660
C1055       C  0.03028717  0.53241775  0.53437321    -0.07110
Cl1056     Cl  0.49899061  0.50607972  0.94164826    -0.50120
C1057       C  0.42720542  0.58123870  0.97256618     0.42420
H1058       H  0.15743804  0.56163015  0.93030115     0.06630
N1059       N  0.46532889  0.97190848  0.53381544    -0.46830
C1060       C  0.42476685  0.57929059  0.65355353     0.42270
N1061       N  0.47137321  0.56153430  0.65538528     0.01160
C1062       C  0.43625987  0.86416320  0.69403963    -0.06720
H1063       H  0.37606671  0.92024700  0.76295021     0.06650
C1064       C  0.03402473  0.54457262  0.78279419    -0.07070
Co1065     Co  0.43190698  0.96754652  0.66242650     0.74180
N1066       N  0.40786240  0.94494726  0.72314087    -0.26250
Co1067     Co  0.46486844  0.94604974  0.72651938     0.74070
C1068       C  0.49848761  0.51534363  0.80103042     0.42370
N1069       N  0.06302526  0.59885370  0.71410065     0.00770
N1070       N  0.48712580  0.98970545  0.75934456     0.00880
N1071       N  0.41417967  0.87759020  0.65247369    -0.47100
H1072       H  0.36968667  0.50903873  0.65749937     0.06630
N1073       N  0.39535408  0.95289827  0.69875816     0.01160
N1074       N  0.02214251  0.94743294  0.72827622     0.00900
C1075       C  0.06855433  0.92894486  0.72916607     0.42510
N1076       N  0.05025246  0.60585082  0.68953519    -0.25710
C1077       C  0.45986436  0.96531761  0.60048211    -0.06630
N1078       N  0.46695981  0.59480773  0.65304553    -0.46810
N1079       N  0.02643974  0.91404108  0.73012540    -0.47040
C1080       C  0.99584638  0.49485779  0.58253201     0.42280
N1081       N  0.43106323  0.91104376  0.66908289     0.01150
N1082       N  0.08453763  0.56354238  0.66069917    -0.25730
N1083       N  0.43466584  0.52506066  0.65744485    -0.26220
N1084       N  0.09673768  0.55515713  0.68499170     0.00790
H1085       H  0.11626874  0.58965058  0.62145112     0.06680
H1086       H  0.12389170  0.99882145  0.72471792     0.06710
N1087       N  0.44357485  0.90358378  0.69361627    -0.26270
N1088       N  0.02421762  0.52596212  0.75747985    -0.25880
N1089       N  0.00636665  0.51960134  0.62442454     0.01150
C1090       C  0.34233855  0.93286031  0.72618794     0.42550
C1091       C  0.05930290  0.64588559  0.68803006    -0.07130
N1092       N  0.05895653  0.98377361  0.72611938    -0.25880
H1093       H  0.06379957  0.57304461  0.78829519     0.06700
N1094       N  0.35612430  0.94524740  0.69957617    -0.47100
H1095       H  0.05300124  0.65998641  0.66993067     0.06690
C1096       C  0.14977490  0.57551227  0.65788320     0.42390
C1097       C  0.40326299  0.53292148  0.65637494    -0.06630
Co1098     Co  0.02827344  0.56289958  0.65718919     0.73820
N1099       N  0.08178554  0.63343999  0.72975498    -0.46820
C1100       C  0.41757352  0.84726830  0.66665516     0.42650
N1101       N  0.02297874  0.52778599  0.59888682    -0.46810
Co1102     Co  0.06129676  0.54146744  0.72115360     0.73890
C1103       C  0.09025263  0.97540042  0.72646228    -0.07140
C1104       C  0.37633415  0.93187692  0.74178575    -0.06700
N1105       N  0.46923296  0.98340444  0.62600503    -0.26230
N1106       N  0.47102604  0.98197814  0.78502788    -0.46990
H1107       H  0.44058309  0.84848946  0.71215477     0.06660
C1108       C  0.11605993  0.57692371  0.64218722    -0.07110
Cl1109     Cl  0.49652998  0.50452544  0.69188082    -0.50120
C1110       C  0.08098087  0.66454325  0.71440457     0.42420
H1111       H  0.43019090  0.93696255  0.59466949     0.06630
N1112       N  0.13563045  0.56234996  0.68428186    -0.46830
C1113       C  0.09516967  0.71510080  0.75165055    -0.20500
C1114       C  0.09950805  0.70907067  0.72350399    -0.07060
C1115       C  0.11956328  0.74504467  0.70516630     0.13800
C1116       C  0.13500403  0.78583537  0.71589446    -0.20550
C1117       C  0.13425815  0.79306375  0.74491335    -0.07070
C1118       C  0.10916070  0.75549606  0.76219489     0.13790
C1119       C  0.09067087  0.75408156  0.79027041    -0.23900
H1120       H  0.07788783  0.68727952  0.76534726     0.15080
H1121       H  0.15041026  0.81291517  0.70159587     0.15110
C1122       C  0.12763578  0.74168167  0.67467915    -0.23850
H1123       H  0.10970833  0.75093847  0.80741664     0.05320
H1124       H  0.05762393  0.72610363  0.79196764     0.08550
H1125       H  0.08684043  0.78120351  0.79283314     0.08550
H1126       H  0.09764210  0.72812094  0.66239338     0.08530
H1127       H  0.14187237  0.72186695  0.67271591     0.08530
H1128       H  0.15018209  0.77340195  0.66510621     0.05310
C1129       C  0.08977635  0.84030018  0.74693755    -0.20500
C1130       C  0.13327621  0.85975354  0.73992637    -0.07060
C1131       C  0.14923965  0.89543785  0.72079952     0.13800
C1132       C  0.12801404  0.91787054  0.71840634    -0.20550
C1133       C  0.08807727  0.90233276  0.73065956    -0.07070
C1134       C  0.06755832  0.86138849  0.74349774     0.13790
C1135       C  0.02332233  0.84045403  0.75539435    -0.23900
H1136       H  0.07389733  0.80991284  0.75765276     0.15080
H1137       H  0.14202272  0.94688298  0.70572550     0.15110
C1138       C  0.18491774  0.90881460  0.70024705    -0.23850
H1139       H  0.01312321  0.80917417  0.76562877     0.05320
H1140       H  0.00010334  0.83470115  0.73831156     0.08550
H1141       H  0.02233525  0.86106378  0.77155181     0.08550
H1142       H  0.19498366  0.88570906  0.69857604     0.08530
H1143       H  0.21253711  0.94068559  0.70552858     0.08530
H1144       H  0.17370458  0.91099884  0.67876099     0.05310
C1145       C  0.22628911  0.84561513  0.73374424    -0.20500
C1146       C  0.20774564  0.86663507  0.74634291    -0.07060
C1147       C  0.23677537  0.91068606  0.75319881     0.13800
C1148       C  0.28034293  0.93080480  0.74684574    -0.20550
C1149       C  0.29682811  0.90943450  0.73365227    -0.07070
C1150       C  0.26966262  0.86635993  0.72713993     0.13790
C1151       C  0.28670126  0.84176885  0.71373779    -0.23900
H1152       H  0.20818100  0.81187916  0.73044335     0.15080
H1153       H  0.30175981  0.96405536  0.75189822     0.15110
C1154       C  0.22453639  0.93907219  0.76686862    -0.23850
H1155       H  0.26133320  0.80806496  0.71014285     0.05320
H1156       H  0.31137059  0.84200729  0.72761483     0.08550
H1157       H  0.30099264  0.85651639  0.69305492     0.08550
H1158       H  0.19027833  0.92508179  0.76907280     0.08530
H1159       H  0.23612758  0.96855287  0.75390921     0.08530
H1160       H  0.23965539  0.94815326  0.78798919     0.05310
C1161       C  0.14431778  0.78544348  0.91766156    -0.20500
C1162       C  0.13528010  0.79700561  0.89102358    -0.07060
C1163       C  0.10093878  0.76298216  0.87537001     0.13800
C1164       C  0.08798109  0.72074027  0.88200635    -0.20550
C1165       C  0.10142558  0.71034307  0.90673776    -0.07070
C1166       C  0.12870160  0.74285956  0.92543039     0.13790
C1167       C  0.14290128  0.73314768  0.95305435    -0.23900
H1168       H  0.16521016  0.81028378  0.93210110     0.15080
H1169       H  0.06375443  0.69514837  0.86928336     0.15110
C1170       C  0.07049198  0.76854120  0.85672645    -0.23850
H1171       H  0.16659667  0.76264948  0.96405146     0.05320
H1172       H  0.15789993  0.71442886  0.94928871     0.08550
H1173       H  0.11528740  0.71487323  0.96722749     0.08550
H1174       H  0.08502381  0.78517341  0.83721697     0.08530
H1175       H  0.05834628  0.78596527  0.86765927     0.08530
H1176       H  0.04212439  0.73758407  0.85057928     0.05310
C1177       C  0.16258743  0.91085765  0.90455948    -0.20500
C1178       C  0.13914430  0.86674749  0.89902369    -0.07060
C1179       C  0.09600942  0.84516043  0.90915985     0.13800
C1180       C  0.07539479  0.86785566  0.91055509    -0.20550
C1181       C  0.09775454  0.91223410  0.90828356    -0.07070
C1182       C  0.14275172  0.93418737  0.90785552     0.13790
C1183       C  0.17040433  0.98191830  0.91014150    -0.23900
H1184       H  0.19652488  0.92797343  0.90635194     0.15080
H1185       H  0.04184341  0.85059822  0.91543383     0.15110
C1186       C  0.07502353  0.80416166  0.92659158    -0.23850
H1187       H  0.20483646  0.99324717  0.90993477     0.05320
H1188       H  0.16388548  0.99210739  0.93019284     0.08550
H1189       H  0.16420309  0.99748472  0.89199406     0.08550
H1190       H  0.09722488  0.80618493  0.94339722     0.08530
H1191       H  0.06289327  0.77525574  0.91420098     0.08530
H1192       H  0.04668691  0.79908458  0.93795815     0.05310
C1193       C  0.28380869  0.93180339  0.88398735    -0.20500
C1194       C  0.29972473  0.90956284  0.89778832    -0.07060
C1195       C  0.27271106  0.86596836  0.90332548     0.13800
C1196       C  0.22934383  0.84629704  0.89657805    -0.20550
C1197       C  0.21012212  0.86928799  0.88690346    -0.07070
C1198       C  0.24041294  0.91239395  0.87720109     0.13790
C1199       C  0.23082423  0.94015384  0.85860706    -0.23900
H1200       H  0.30576251  0.96494426  0.87821235     0.15080
H1201       H  0.21193047  0.81214608  0.89732754     0.15110
C1202       C  0.28969033  0.83996118  0.91614960    -0.23850
H1203       H  0.24660319  0.94545878  0.83800656     0.05320
H1204       H  0.24350286  0.97157800  0.86848787     0.08550
H1205       H  0.19717445  0.92737441  0.85476432     0.08550
H1206       H  0.30440208  0.85283347  0.93699704     0.08530
H1207       H  0.31402646  0.84126264  0.90214526     0.08530
H1208       H  0.26416551  0.80603308  0.91930256     0.05310
C1209       C  0.14062994  0.86328708  0.80165727    -0.20500
C1210       C  0.16015431  0.84433659  0.78778864    -0.07060
C1211       C  0.18020160  0.82812438  0.80561782     0.13800
C1212       C  0.17662446  0.82817098  0.83486504    -0.20550
C1213       C  0.15676838  0.84652378  0.84877220    -0.07070
C1214       C  0.13728681  0.86358142  0.83114287     0.13790
C1215       C  0.11056006  0.88007573  0.84187070    -0.23900
H1216       H  0.12747697  0.87874112  0.78962851     0.15080
H1217       H  0.19032591  0.81351218  0.84749057     0.15110
C1218       C  0.20596274  0.81029952  0.79504870    -0.23850
H1219       H  0.09576448  0.88874269  0.82451742     0.05320
H1220       H  0.12988678  0.90934542  0.85395108     0.08550
H1221       H  0.08382969  0.85520536  0.85443220     0.08550
H1222       H  0.23684360  0.83655931  0.78694216     0.08530
H1223       H  0.18853896  0.78583514  0.77896955     0.08530
H1224       H  0.21408798  0.79457738  0.81210616     0.05310
C1225       C  0.22504829  0.61782316  0.67225084    -0.20500
C1226       C  0.19508167  0.59694060  0.65070762    -0.07060
C1227       C  0.20897550  0.59575986  0.62365429     0.13800
C1228       C  0.25260048  0.61753434  0.61844401    -0.20550
C1229       C  0.28369453  0.64050794  0.63963768    -0.07070
C1230       C  0.26881557  0.63870438  0.66748386     0.13790
C1231       C  0.29740469  0.65763192  0.69302979    -0.23900
H1232       H  0.21428001  0.61787491  0.69329673     0.15080
H1233       H  0.26162209  0.61549816  0.59740753     0.15110
C1234       C  0.17834955  0.57038454  0.60026951    -0.23850
H1235       H  0.28593938  0.63360757  0.71046044     0.05320
H1236       H  0.29649844  0.68550436  0.70016691     0.08550
H1237       H  0.33071729  0.66720455  0.68942676     0.08550
H1238       H  0.16063811  0.58547374  0.59300758     0.08530
H1239       H  0.15586274  0.53721523  0.60765641     0.08530
H1240       H  0.19509310  0.56883294  0.58162568     0.05310
C1241       C  0.39184255  0.73495498  0.65734127    -0.20500
C1242       C  0.35070952  0.71384710  0.64468460    -0.07060
C1243       C  0.32946116  0.73754557  0.64456973     0.13800
C1244       C  0.35282387  0.78116514  0.65110005    -0.20550
C1245       C  0.39558256  0.80206837  0.65907236    -0.07070
C1246       C  0.41526324  0.77858841  0.66249976     0.13790
C1247       C  0.46169428  0.79949157  0.67064258    -0.23900
H1248       H  0.40680223  0.71816415  0.66434538     0.15080
H1249       H  0.33727369  0.79919529  0.65048358     0.15110
C1250       C  0.28263366  0.71951527  0.63808356    -0.23850
H1251       H  0.47294111  0.77697331  0.66977103     0.05320
H1252       H  0.46702111  0.81127116  0.69238557     0.08550
H1253       H  0.48142850  0.82641025  0.65588450     0.08550
H1254       H  0.26331938  0.70395003  0.65708381     0.08530
H1255       H  0.27077962  0.69762771  0.62017082     0.08530
H1256       H  0.27650186  0.74509199  0.63208942     0.05310
C1257       C  0.36279088  0.58554787  0.66155435    -0.20500
C1258       C  0.40423996  0.60465877  0.65170161    -0.07060
C1259       C  0.42281893  0.64482327  0.63828144     0.13800
C1260       C  0.39883270  0.66396836  0.63462744    -0.20550
C1261       C  0.35570184  0.64476562  0.64345370    -0.07070
C1262       C  0.33709109  0.60250697  0.65608621     0.13790
C1263       C  0.29023439  0.57050030  0.66118397    -0.23900
H1264       H  0.34916991  0.55497422  0.67230761     0.15080
H1265       H  0.41315939  0.69365370  0.62265768     0.15110
C1266       C  0.46710189  0.66703747  0.62633855    -0.23850
H1267       H  0.28365543  0.53823561  0.66688280     0.05320
H1268       H  0.27129791  0.56529569  0.64175313     0.08550
H1269       H  0.27848926  0.57898114  0.67940803     0.08550
H1270       H  0.46911019  0.64654330  0.61055904     0.08530
H1271       H  0.49062898  0.67420075  0.64351683     0.08530
H1272       H  0.47595564  0.69769106  0.61566530     0.05310
C1273       C  0.21514019  0.57999618  0.99726980    -0.20500
C1274       C  0.19956549  0.60339772  0.98469971    -0.07060
C1275       C  0.22731679  0.64708182  0.97950727     0.13800
C1276       C  0.27073739  0.66617655  0.98634495    -0.20550
C1277       C  0.28882332  0.64271478  0.99722530    -0.07070
C1278       C  0.25838674  0.59855728  0.00423064     0.13790
C1279       C  0.26809567  0.56840118  0.51932859    -0.23900
H1280       H  0.19303654  0.54638497  0.00169071     0.15080
H1281       H  0.28967849  0.70023638  0.98376303     0.15110
C1282       C  0.21101087  0.67368965  0.96675127    -0.23850
H1283       H  0.25139252  0.55835915  0.53984540     0.05320
H1284       H  0.30160006  0.58208170  0.52328998     0.08550
H1285       H  0.25726042  0.53977464  0.00638809     0.08550
H1286       H  0.18657685  0.67240207  0.98065673     0.08530
H1287       H  0.19654574  0.66128175  0.94577564     0.08530
H1288       H  0.23682001  0.70756996  0.96393428     0.05310
C1289       C  0.38519844  0.74842406  0.51495397    -0.20500
C1290       C  0.36207189  0.71538494  0.99520761    -0.07060
C1291       C  0.36398663  0.72897782  0.96645574     0.13800
C1292       C  0.38306530  0.77264112  0.95979151    -0.20550
C1293       C  0.40156692  0.80390389  0.98048610    -0.07070
C1294       C  0.40426459  0.79162849  0.00824080     0.13790
C1295       C  0.42951053  0.82370087  0.53079967    -0.23900
H1296       H  0.39106657  0.74122928  0.53599364     0.15080
H1297       H  0.38270276  0.78228043  0.93808522     0.15110
C1298       C  0.34525331  0.69919416  0.94196747    -0.23850
H1299       H  0.43385983  0.80854032  0.54999662     0.05320
H1300       H  0.41258077  0.83933634  0.53743528     0.08550
H1301       H  0.46167767  0.84779840  0.02297054     0.08550
H1302       H  0.32176075  0.70448706  0.93067600     0.08530
H1303       H  0.32855620  0.66527871  0.94798505     0.08530
H1304       H  0.37100250  0.70583759  0.92718154     0.05310
C1305       C  0.34203052  0.61041520  0.97555207    -0.20500
C1306       C  0.36350560  0.64835784  0.99134625    -0.07060
C1307       C  0.40895099  0.66793788  0.99399557     0.13800
C1308       C  0.42797008  0.64541428  0.98645085    -0.20550
C1309       C  0.40459253  0.60439862  0.97577640    -0.07070
C1310       C  0.36131710  0.58747063  0.96883397     0.13790
C1311       C  0.33518128  0.54542905  0.95428891    -0.23900
H1312       H  0.30932472  0.59711462  0.46920961     0.15080
H1313       H  0.46163324  0.65957322  0.99045067     0.15110
C1314       C  0.43913403  0.71137855  0.00607443    -0.23850
H1315       H  0.30262684  0.53818449  0.44898064     0.05320
H1316       H  0.33168623  0.51926136  0.46825673     0.08550
H1317       H  0.35082340  0.54612944  0.93441410     0.08550
H1318       H  0.42979213  0.71325274  0.02765045     0.08530
H1319       H  0.44116487  0.73654331  0.99180436     0.08530
H1320       H  0.47231757  0.71869221  0.00801766     0.05310
C1321       C  0.34193174  0.63950437  0.58537745    -0.20500
C1322       C  0.33664826  0.67052066  0.59865609    -0.06880
C1323       C  0.32875158  0.69631604  0.57964923     0.13800
C1324       C  0.31941491  0.68432851  0.55146543    -0.20550
C1325       C  0.33755215  0.66370233  0.53820194    -0.07070
C1326       C  0.35124852  0.64185116  0.55674971     0.13790
C1327       C  0.37677650  0.62190777  0.54941800    -0.23900
H1328       H  0.34185457  0.61437986  0.59748561     0.15080
H1329       H  0.30744855  0.70037268  0.53844491     0.15110
C1330       C  0.34341540  0.74242668  0.58413405    -0.23850
H1331       H  0.37825945  0.60260854  0.56721186     0.05320
H1332       H  0.41035016  0.64713398  0.54590088     0.08550
H1333       H  0.36430787  0.60003059  0.53159924     0.08550
H1334       H  0.37146864  0.75810481  0.59830768     0.08530
H1335       H  0.31693721  0.74625168  0.58994627     0.08530
H1336       H  0.35511188  0.76141777  0.56433860     0.05310
C1337       C  0.83833027  0.16690858  0.00512383    -0.02680
C1338       C  0.83146208  0.16760841  0.13200639    -0.02680
C1339       C  0.65955583  0.34538084  0.38183861    -0.02680
C1340       C  0.65905275  0.34111531  0.25463388    -0.02680
C1341       C  0.58239451  0.16499079  0.41384245     0.42270
N1342       N  0.55506028  0.10749560  0.43827188     0.01160
C1343       C  0.52659121  0.41332244  0.40861078    -0.06720
H1344       H  0.93727953  0.44958813  0.34301944     0.06650
C1345       C  0.85874833  0.44973753  0.43490749    -0.07070
Co1346     Co  0.56092015  0.03970185  0.41042317     0.74180
N1347       N  0.98326500  0.48577303  0.37539698    -0.26250
Co1348     Co  0.96326265  0.44488126  0.41054618     0.74070
C1349       C  0.84437033  0.43292301  0.40691961     0.42370
N1350       N  0.94096398  0.03147160  0.47380982     0.00770
N1351       N  0.90736575  0.44546676  0.41342835     0.00880
N1352       N  0.58960253  0.47601336  0.40841086    -0.47100
H1353       H  0.59497884  0.13461386  0.37652869     0.06630
N1354       N  0.52037478  0.02212824  0.37496523     0.01160
N1355       N  0.94395880  0.40483106  0.44584024     0.00900
C1356       C  0.91960319  0.34902405  0.47217315     0.42510
N1357       N  0.97868787  0.06696856  0.47383561    -0.25710
C1358       C  0.64000518  0.06400623  0.44741895    -0.06630
N1359       N  0.56551454  0.14754103  0.43898261    -0.46810
N1360       N  0.93556237  0.36532721  0.44650937    -0.47040
C1361       C  0.65479312  0.08065844  0.47541728     0.42280
N1362       N  0.55712789  0.48170115  0.40869966     0.01150
N1363       N  0.51387947  0.02567990  0.00818719    -0.25730
N1364       N  0.56441321  0.09751759  0.41413640    -0.26220
N1365       N  0.97626974  0.48991664  0.00831869     0.00790
H1366       H  0.55922476  0.06079592  0.04116547     0.06680
H1367       H  0.90344965  0.38041052  0.00724860     0.06710
N1368       N  0.51994902  0.44558646  0.40896066    -0.26270
N1369       N  0.89788186  0.45638198  0.43712291    -0.25880
N1370       N  0.59085337  0.06611800  0.46993586     0.01150
C1371       C  0.99716978  0.01425528  0.33217814     0.42550
C1372       C  0.97333904  0.10001935  0.47311960    -0.07130
N1373       N  0.93363681  0.41531762  0.46937426    -0.25880
H1374       H  0.84137505  0.45313425  0.45161278     0.06700
N1375       N  0.53030943  0.03981357  0.34933542    -0.47100
H1376       H  0.99882063  0.13306768  0.47242633     0.06690
C1377       C  0.49814392  0.99664891  0.05137276     0.42390
C1378       C  0.58142156  0.13196739  0.39698749    -0.06630
Co1379     Co  0.53493562  0.06682172  0.47299160     0.73820
N1380       N  0.90922812  0.03848394  0.47329207    -0.46820
C1381       C  0.57303563  0.43360066  0.40846500     0.42650
N1382       N  0.62318857  0.08210600  0.48807786    -0.46810
Co1383     Co  0.93664064  0.47293631  0.47257402     0.73890
C1384       C  0.91765772  0.38197571  0.48728511    -0.07140
C1385       C  0.96607379  0.47839276  0.34946547    -0.06700
N1386       N  0.60035624  0.05619426  0.44580630    -0.26230
N1387       N  0.87556142  0.43007602  0.39493612    -0.46990
H1388       H  0.50180571  0.37999953  0.40872950     0.06660
C1389       C  0.53028547  0.03241896  0.03437456    -0.07110
Cl1390     Cl  0.99898376  0.00607640  0.44164838    -0.50120
C1391       C  0.92719555  0.08123179  0.47256771     0.42420
H1392       H  0.65743445  0.06163399  0.43030092     0.06630
N1393       N  0.96533517  0.47191497  0.03381556    -0.46830
C1394       C  0.92475576  0.07928765  0.15355628     0.42270
N1395       N  0.97136265  0.06153228  0.15538819     0.01160
C1396       C  0.93627019  0.36416323  0.19403019    -0.06720
H1397       H  0.87607515  0.42023960  0.26294987     0.06650
C1398       C  0.53401213  0.04456937  0.28279532    -0.07070
Co1399     Co  0.93191387  0.46754924  0.16242688     0.74180
N1400       N  0.90787008  0.44494383  0.22314068    -0.26250
Co1401     Co  0.96487654  0.44604697  0.22651723     0.74070
C1402       C  0.99847611  0.01534051  0.30103144     0.42370
N1403       N  0.56301406  0.09885059  0.21410409     0.00770
N1404       N  0.98713351  0.48970077  0.25934429     0.00880
N1405       N  0.91418618  0.37759591  0.15246778    -0.47100
H1406       H  0.86967577  0.00903598  0.15750136     0.06630
N1407       N  0.89536159  0.45289781  0.19875908     0.01160
N1408       N  0.52215119  0.44743233  0.22827333     0.00900
C1409       C  0.56856382  0.42894541  0.22916264     0.42510
N1410       N  0.55024145  0.10584852  0.18953882    -0.25710
C1411       C  0.95987053  0.46532327  0.10048187    -0.06630
N1412       N  0.96694883  0.09480539  0.15304852    -0.46810
N1413       N  0.52644911  0.41404091  0.23012139    -0.47040
C1414       C  0.49584071  0.99486008  0.08253350     0.42280
N1415       N  0.93106974  0.41104635  0.16907965     0.01150
N1416       N  0.58452870  0.06354265  0.16070305    -0.25730
N1417       N  0.93465537  0.02505840  0.15744721    -0.26220
N1418       N  0.59672832  0.05515674  0.18499555     0.00790
H1419       H  0.61626210  0.08965646  0.12145663     0.06680
H1420       H  0.62390062  0.49882279  0.22471732     0.06710
N1421       N  0.94358306  0.40358334  0.19361143    -0.26270
N1422       N  0.52420526  0.02595809  0.25748139    -0.25880
N1423       N  0.50635867  0.01960196  0.12442652     0.01150
C1424       C  0.84234660  0.43285694  0.22618984     0.42550
C1425       C  0.55929439  0.14588415  0.18803361    -0.07130
N1426       N  0.55896491  0.48377363  0.22611796    -0.25880
H1427       H  0.56378675  0.07304177  0.28829608     0.06700
N1428       N  0.85613193  0.44524704  0.19957828    -0.47100
H1429       H  0.55299463  0.15998618  0.16993404     0.06690
C1430       C  0.64976771  0.07551711  0.15788864     0.42390
C1431       C  0.90325216  0.03291875  0.15637747    -0.06630
Co1432     Co  0.52826370  0.06289857  0.15719222     0.73820
N1433       N  0.58177693  0.13343709  0.22975811    -0.46820
C1434       C  0.91758213  0.34727266  0.16664505     0.42650
N1435       N  0.52297204  0.02778774  0.09888909    -0.46810
Co1436     Co  0.56128550  0.04146445  0.22115627     0.73890
C1437       C  0.59026156  0.47540117  0.22646064    -0.07140
C1438       C  0.87634218  0.43187151  0.24178609    -0.06700
N1439       N  0.96923937  0.48340922  0.12600504    -0.26230
N1440       N  0.97103324  0.48197283  0.28502755    -0.46990
H1441       H  0.94059702  0.34848632  0.21214209     0.06660
C1442       C  0.61605254  0.07692744  0.14219208    -0.07110
Cl1443     Cl  0.99651961  0.00452296  0.19188249    -0.50120
C1444       C  0.58097404  0.16454126  0.21440777     0.42420
H1445       H  0.93019702  0.43696842  0.09466905     0.06630
N1446       N  0.63562234  0.06235252  0.18428677    -0.46830
C1447       C  0.59516941  0.21510104  0.25165301    -0.20500
C1448       C  0.59950642  0.20906951  0.22350658    -0.07060
C1449       C  0.61956577  0.24504295  0.20516874     0.13800
C1450       C  0.63501115  0.28583469  0.21589660    -0.20550
C1451       C  0.63426521  0.29306410  0.24491532    -0.07070
C1452       C  0.60916487  0.25549728  0.26219714     0.13790
C1453       C  0.59067584  0.25408506  0.29027259    -0.23900
H1454       H  0.57788520  0.18728024  0.26534981     0.15080
H1455       H  0.65041998  0.31291415  0.20159786     0.15110
C1456       C  0.62763730  0.24167775  0.17468177    -0.23850
H1457       H  0.60971401  0.25094387  0.30741911     0.05320
H1458       H  0.55762926  0.22610683  0.29197120     0.08550
H1459       H  0.58684442  0.28120675  0.29283381     0.08550
H1460       H  0.59764387  0.22811925  0.16239594     0.08530
H1461       H  0.64187054  0.22185990  0.17271911     0.08530
H1462       H  0.65018597  0.27339702  0.16510849     0.05310
C1463       C  0.58978522  0.34030093  0.24693536    -0.20500
C1464       C  0.63328602  0.35975509  0.23992659    -0.07060
C1465       C  0.64925137  0.39544032  0.22080042     0.13800
C1466       C  0.62802622  0.41787340  0.21840657    -0.20550
C1467       C  0.58808721  0.40233378  0.23065687    -0.07070
C1468       C  0.56756623  0.36138776  0.24349264     0.13790
C1469       C  0.52332561  0.34044846  0.25538227    -0.23900
H1470       H  0.57390486  0.30991272  0.25764947     0.15080
H1471       H  0.64203657  0.44688698  0.20572685     0.15110
C1472       C  0.68493029  0.40881679  0.20024871    -0.23850
H1473       H  0.51312475  0.30916703  0.26561484     0.05320
H1474       H  0.50011239  0.33469741  0.23829556     0.08550
H1475       H  0.52233083  0.36105376  0.27153979     0.08550
H1476       H  0.69499493  0.38571020  0.19857771     0.08530
H1477       H  0.71255010  0.44068716  0.20553088     0.08530
H1478       H  0.67371849  0.41100228  0.17876245     0.05310
C1479       C  0.72629679  0.34561326  0.23374683    -0.20500
C1480       C  0.70775405  0.36663431  0.24634493    -0.07060
C1481       C  0.73678452  0.41068515  0.25320080     0.13800
C1482       C  0.78035199  0.43080297  0.24684779    -0.20550
C1483       C  0.79683645  0.40943170  0.23365475    -0.07070
C1484       C  0.76967037  0.36635704  0.22714285     0.13790
C1485       C  0.78670835  0.34176498  0.21374130    -0.23900
H1486       H  0.70818791  0.31187727  0.23044602     0.15080
H1487       H  0.80176937  0.46405357  0.25189996     0.15110
C1488       C  0.72454640  0.43907215  0.26687033    -0.23850
H1489       H  0.76133979  0.30806127  0.21014636     0.05320
H1490       H  0.81137701  0.34200283  0.22761874     0.08550
H1491       H  0.80100043  0.35651218  0.19305850     0.08550
H1492       H  0.69028843  0.42508235  0.26907464     0.08530
H1493       H  0.73613803  0.46855271  0.25391072     0.08530
H1494       H  0.73966566  0.44815342  0.28799080     0.05310
C1495       C  0.64431658  0.28544099  0.41766220    -0.20500
C1496       C  0.63528012  0.29700417  0.39102417    -0.07060
C1497       C  0.60093775  0.26298171  0.37537053     0.13800
C1498       C  0.58797764  0.22073920  0.38200698    -0.20550
C1499       C  0.60142013  0.21034069  0.40673876    -0.07070
C1500       C  0.62869745  0.24285657  0.42543131     0.13790
C1501       C  0.64289525  0.23314335  0.45305554    -0.23900
H1502       H  0.66520962  0.31028076  0.43210186     0.15080
H1503       H  0.56375037  0.19514799  0.36928386     0.15110
C1504       C  0.57049205  0.26854260  0.35672704    -0.23850
H1505       H  0.66659174  0.26264458  0.46405273     0.05320
H1506       H  0.65789191  0.21442259  0.44929027     0.08550
H1507       H  0.61528076  0.21487032  0.46722841     0.08550
H1508       H  0.58502440  0.28517575  0.33721791     0.08530
H1509       H  0.55834646  0.28596635  0.36766037     0.08530
H1510       H  0.54212424  0.23758614  0.35057908     0.05310
C1511       C  0.66259004  0.41085715  0.40456011    -0.20500
C1512       C  0.63914630  0.36674702  0.39902419    -0.07060
C1513       C  0.59601139  0.34516051  0.40916016     0.13800
C1514       C  0.57539742  0.36785628  0.41055512    -0.20550
C1515       C  0.59775785  0.41223476  0.40828392    -0.07070
C1516       C  0.64275494  0.43418746  0.40785603     0.13790
C1517       C  0.67040801  0.48191834  0.41014201    -0.23900
H1518       H  0.69652747  0.42797242  0.40635275     0.15080
H1519       H  0.54184603  0.35059916  0.41543376     0.15110
C1520       C  0.57502513  0.30416225  0.42659245    -0.23850
H1521       H  0.70484004  0.49324680  0.40993522     0.05320
H1522       H  0.66388941  0.49210765  0.43019336     0.08550
H1523       H  0.66420690  0.49748492  0.39199460     0.08550
H1524       H  0.59722656  0.30618553  0.44339802     0.08530
H1525       H  0.56289391  0.27525584  0.41420222     0.08530
H1526       H  0.54668903  0.29908617  0.43795921     0.05310
C1527       C  0.78381082  0.43179995  0.38398710    -0.20500
C1528       C  0.79972639  0.40955892  0.39778787    -0.07060
C1529       C  0.77271183  0.36596498  0.40332634     0.13800
C1530       C  0.72934438  0.34629451  0.39657983    -0.20550
C1531       C  0.71012347  0.36928604  0.38690481    -0.07070
C1532       C  0.74041491  0.41239160  0.37720186     0.13790
C1533       C  0.73082682  0.44015220  0.35860810    -0.23900
H1534       H  0.80576514  0.46494052  0.37821161     0.15080
H1535       H  0.71193029  0.31214360  0.39733016     0.15110
C1536       C  0.78969045  0.33995747  0.41615086    -0.23850
H1537       H  0.74660484  0.44545632  0.33800735     0.05320
H1538       H  0.74350684  0.47157667  0.36848881     0.08550
H1539       H  0.69717718  0.42737392  0.35476592     0.08550
H1540       H  0.80440326  0.35283066  0.43699792     0.08530
H1541       H  0.81402561  0.34125738  0.40214632     0.08530
H1542       H  0.76416509  0.30602979  0.41930470     0.05310
C1543       C  0.64063601  0.36328793  0.30165758    -0.20500
C1544       C  0.66016115  0.34433753  0.28778978    -0.07060
C1545       C  0.68020705  0.32812457  0.30561960     0.13800
C1546       C  0.67662744  0.32816984  0.33486660    -0.20550
C1547       C  0.65677118  0.34652300  0.34877307    -0.07070
C1548       C  0.63729127  0.36358177  0.33114312     0.13790
C1549       C  0.61056426  0.38007626  0.34187027    -0.23900
H1550       H  0.62748323  0.37874165  0.28962813     0.15080
H1551       H  0.69032725  0.31350985  0.34749258     0.15110
C1552       C  0.70596799  0.31029896  0.29505137    -0.23850
H1553       H  0.59576974  0.38874371  0.32451655     0.05320
H1554       H  0.62989041  0.40934562  0.35395107     0.08550
H1555       H  0.58383324  0.35520593  0.35443137     0.08550
H1556       H  0.73684939  0.33655835  0.28694522     0.08530
H1557       H  0.68854435  0.28583457  0.27897218     0.08530
H1558       H  0.71409223  0.29457653  0.31210921     0.05310
C1559       C  0.72504387  0.11782029  0.17225391    -0.20500
C1560       C  0.69507358  0.09694100  0.15071180    -0.07060
C1561       C  0.70896265  0.09575838  0.12365737     0.13800
C1562       C  0.75258632  0.11753117  0.11844417    -0.20550
C1563       C  0.78368439  0.14050558  0.13963569    -0.07070
C1564       C  0.76881066  0.13870026  0.16748363     0.13790
C1565       C  0.79740494  0.15762359  0.19302789    -0.23900
H1566       H  0.71427903  0.11787091  0.19330111     0.15080
H1567       H  0.76160340  0.11549183  0.09740702     0.15110
C1568       C  0.67833302  0.07038203  0.10027431    -0.23850
H1569       H  0.78594966  0.13359207  0.21045383     0.05320
H1570       H  0.79649067  0.18548714  0.20017490     0.08550
H1571       H  0.83072008  0.16721001  0.18941872     0.08550
H1572       H  0.66062412  0.08547359  0.09301180     0.08530
H1573       H  0.65584442  0.03721414  0.10766300     0.08530
H1574       H  0.69507325  0.06882571  0.08163023     0.05310
C1575       C  0.89185138  0.23496330  0.15731643    -0.20500
C1576       C  0.85070576  0.21384821  0.14467686    -0.07060
C1577       C  0.82945562  0.23754540  0.14457755     0.13800
C1578       C  0.85282218  0.28116598  0.15110598    -0.20550
C1579       C  0.89558824  0.30207370  0.15905976    -0.07070
C1580       C  0.91527486  0.27859811  0.16247089     0.13790
C1581       C  0.96171390  0.29950810  0.17059401    -0.23900
H1582       H  0.90681916  0.21817797  0.16431359     0.15080
H1583       H  0.83726925  0.29919355  0.15050359     0.15110
C1584       C  0.78262107  0.21951415  0.13811700    -0.23850
H1585       H  0.97296181  0.27699124  0.16971683     0.05320
H1586       H  0.96706197  0.31129981  0.19233492     0.08550
H1587       H  0.98143194  0.32642033  0.15582755     0.08550
H1588       H  0.76333207  0.20397143  0.15713034     0.08530
H1589       H  0.77073830  0.19760902  0.12021404     0.08530
H1590       H  0.77648749  0.24508885  0.13212013     0.05310
C1591       C  0.86278073  0.08554732  0.16155492    -0.20500
C1592       C  0.90422848  0.10465493  0.15170031    -0.07060
C1593       C  0.92280397  0.14481264  0.13827136     0.13800
C1594       C  0.89881785  0.16395715  0.13461452    -0.20550
C1595       C  0.85568992  0.14476065  0.14344600    -0.07070
C1596       C  0.83707946  0.10250333  0.15608090     0.13790
C1597       C  0.79022126  0.07049123  0.16116924    -0.23900
H1598       H  0.84916068  0.05497650  0.17231205     0.15080
H1599       H  0.91314186  0.19363647  0.12263806     0.15110
C1600       C  0.96708235  0.16701904  0.12632151    -0.23850
H1601       H  0.78364393  0.03822597  0.16686432     0.05320
H1602       H  0.77129331  0.06529153  0.14173479     0.08550
H1603       H  0.77846500  0.07896239  0.17939203     0.08550
H1604       H  0.96908396  0.14651511  0.11054669     0.08530
H1605       H  0.99061576  0.17419171  0.14349696     0.08530
H1606       H  0.97593291  0.19766685  0.11564081     0.05310
C1607       C  0.71513397  0.07999764  0.49727211    -0.20500
C1608       C  0.69956065  0.10339999  0.48470123    -0.07060
C1609       C  0.72731288  0.14708460  0.47951086     0.13800
C1610       C  0.77073304  0.16617848  0.48635028    -0.20550
C1611       C  0.78881792  0.14271539  0.49722998    -0.07070
C1612       C  0.75838001  0.09855798  0.50423468     0.13790
C1613       C  0.76809673  0.06839757  0.01931733    -0.23900
H1614       H  0.69302963  0.04638635  0.50169225     0.15080
H1615       H  0.78967494  0.20023856  0.48376972     0.15110
C1616       C  0.71100844  0.17369380  0.46675513    -0.23850
H1617       H  0.75139718  0.05835744  0.03983543     0.05320
H1618       H  0.80160175  0.08207733  0.02327597     0.08550
H1619       H  0.75725229  0.03977466  0.50639290     0.08550
H1620       H  0.68657313  0.17240501  0.48065988     0.08530
H1621       H  0.69654527  0.16128793  0.44577876     0.08530
H1622       H  0.73681803  0.20757428  0.46393979     0.05310
C1623       C  0.88517745  0.24842081  0.01495810    -0.20500
C1624       C  0.86206887  0.21538315  0.49520911    -0.07060
C1625       C  0.86398026  0.22897403  0.46645703     0.13800
C1626       C  0.88306011  0.27263720  0.45979151    -0.20550
C1627       C  0.90156789  0.30390147  0.48048486    -0.07070
C1628       C  0.90427073  0.29162775  0.50823896     0.13790
C1629       C  0.92945850  0.32369266  0.03081609    -0.23900
H1630       H  0.89103370  0.24122377  0.03600044     0.15080
H1631       H  0.88269420  0.28227533  0.43808538     0.15110
C1632       C  0.84524225  0.19918842  0.44197005    -0.23850
H1633       H  0.93379686  0.30852943  0.05001576     0.05320
H1634       H  0.91251089  0.33931358  0.03744406     0.08550
H1635       H  0.96169326  0.34779421  0.52296164     0.08550
H1636       H  0.82174794  0.20448071  0.43068054     0.08530
H1637       H  0.82854629  0.16527342  0.44798879     0.08530
H1638       H  0.87098867  0.20583041  0.42718203     0.05310
C1639       C  0.84202187  0.11041051  0.47555670    -0.20500
C1640       C  0.86349868  0.14835388  0.49135017    -0.07060
C1641       C  0.90894403  0.16793200  0.49399914     0.13800
C1642       C  0.92796135  0.14540696  0.48645415    -0.20550
C1643       C  0.90458272  0.10439163  0.47577952    -0.07070
C1644       C  0.86130713  0.08746466  0.46883809     0.13790
C1645       C  0.83516996  0.04542303  0.45429336    -0.23900
H1646       H  0.80933194  0.09712104  0.96919863     0.15080
H1647       H  0.96162441  0.15956484  0.49045366     0.15110
C1648       C  0.93912949  0.21137231  0.50607760    -0.23850
H1649       H  0.80264192  0.03819729  0.94896627     0.05320
H1650       H  0.83169442  0.01927038  0.96824664     0.08550
H1651       H  0.85081064  0.04612308  0.43441794     0.08550
H1652       H  0.92978937  0.21324723  0.52765396     0.08530
H1653       H  0.94116173  0.23653757  0.49180743     0.08530
H1654       H  0.97231250  0.21868427  0.50802023     0.05310
C1655       C  0.84191567  0.13949747  0.08537142    -0.20500
C1656       C  0.83662713  0.17051146  0.09864912    -0.06880
C1657       C  0.82871331  0.19629360  0.07964072     0.13800
C1658       C  0.81938598  0.18430664  0.05145640    -0.20550
C1659       C  0.83753750  0.16369277  0.03819532    -0.07070
C1660       C  0.85123644  0.14184572  0.05674448     0.13790
C1661       C  0.87677093  0.12190829  0.04941545    -0.23900
H1662       H  0.84183940  0.11437351  0.09747961     0.15080
H1663       H  0.80741161  0.20034171  0.03843396     0.15110
C1664       C  0.84333101  0.24239116  0.08412812    -0.23850
H1665       H  0.87825221  0.10260821  0.06720938     0.05320
H1666       H  0.91034453  0.14713768  0.04590206     0.08550
H1667       H  0.86430878  0.10003336  0.03159541     0.08550
H1668       H  0.87139230  0.25809381  0.09829325     0.08530
H1669       H  0.81683357  0.24617937  0.08994995     0.08530
H1670       H  0.85500212  0.26138410  0.06433082     0.05310
C1671       C  0.83833019  0.16690971  0.50512932    -0.02680
C1672       C  0.83146620  0.16761061  0.63201189    -0.02680
C1673       C  0.65955806  0.34538195  0.88183781    -0.02680
C1674       C  0.65905284  0.34111586  0.75463276    -0.02680
C1675       C  0.58240037  0.16499283  0.91384261     0.42270
N1676       N  0.55506616  0.10749773  0.93827207     0.01160
C1677       C  0.52659219  0.41332285  0.90861170    -0.06720
H1678       H  0.93728126  0.44959025  0.84301900     0.06650
C1679       C  0.85875091  0.44974170  0.93490734    -0.07070
Co1680     Co  0.56092208  0.03970232  0.91042230     0.74180
N1681       N  0.98326669  0.48577406  0.87539690    -0.26250
Co1682     Co  0.96326406  0.44488267  0.91054688     0.74070
C1683       C  0.84437256  0.43292600  0.90691972     0.42370
N1684       N  0.94097060  0.03147743  0.97381000     0.00770
N1685       N  0.90736777  0.44546929  0.91342882     0.00880
N1686       N  0.58960365  0.47601357  0.90841059    -0.47100
H1687       H  0.59498150  0.13461478  0.87652799     0.06630
N1688       N  0.52037703  0.02213012  0.87496467     0.01160
N1689       N  0.94396044  0.40483384  0.94584214     0.00900
C1690       C  0.91960429  0.34902794  0.97217695     0.42510
N1691       N  0.97869511  0.06697366  0.97383671    -0.25710
C1692       C  0.64000477  0.06400088  0.94741655    -0.06630
N1693       N  0.56552131  0.14754340  0.93898298    -0.46810
N1694       N  0.93556389  0.36532994  0.94651285    -0.47040
C1695       C  0.65479404  0.08065182  0.97541469     0.42280
N1696       N  0.55712920  0.48170161  0.90869989     0.01150
N1697       N  0.51387521  0.02567705  0.50818661    -0.25730
N1698       N  0.56441732  0.09751906  0.91413618    -0.26220
N1699       N  0.97626744  0.48991246  0.50831844     0.00790
H1700       H  0.55922153  0.06079321  0.54116428     0.06680
H1701       H  0.90344817  0.38040267  0.50724697     0.06710
N1702       N  0.51995024  0.44558709  0.90896156    -0.26270
N1703       N  0.89788433  0.45638583  0.93712301    -0.25880
N1704       N  0.59085618  0.06611644  0.96993485     0.01150
C1705       C  0.99717294  0.01425766  0.83217710     0.42550
C1706       C  0.97334793  0.10002564  0.97312177    -0.07130
N1707       N  0.93363846  0.41532176  0.96937552    -0.25880
H1708       H  0.84137784  0.45313921  0.95161241     0.06700
N1709       N  0.53031239  0.03981576  0.84933498    -0.47100
H1710       H  0.99883010  0.13307379  0.97242944     0.06690
C1711       C  0.49814232  0.99664496  0.55137175     0.42390
C1712       C  0.58142558  0.13196882  0.89698722    -0.06630
Co1713     Co  0.53494099  0.06682409  0.97299180     0.73820
N1714       N  0.90923592  0.03849136  0.97329212    -0.46820
C1715       C  0.57303664  0.43360085  0.90846512     0.42650
N1716       N  0.62319188  0.08210235  0.98807629    -0.46810
Co1717     Co  0.93664327  0.47294071  0.97257416     0.73890
C1718       C  0.91765905  0.38198107  0.98728730    -0.07140
C1719       C  0.96607573  0.47839450  0.84946528    -0.06700
N1720       N  0.60035725  0.05619213  0.94580485    -0.26230
N1721       N  0.87556335  0.43007811  0.89493665    -0.46990
H1722       H  0.50180656  0.37999997  0.90873078     0.06660
C1723       C  0.53028231  0.03241600  0.53437358    -0.07110
Cl1724     Cl  0.99898671  0.00607850  0.94164806    -0.50120
C1725       C  0.92720486  0.08123942  0.97256887     0.42420
H1726       H  0.65743253  0.06162765  0.93029793     0.06630
N1727       N  0.96533360  0.47191035  0.53381524    -0.46830
C1728       C  0.92475841  0.07928859  0.65355316     0.42270
N1729       N  0.97136509  0.06153282  0.65538543     0.01160
C1730       C  0.93626674  0.36416376  0.69403747    -0.06720
H1731       H  0.87607577  0.42024507  0.76295021     0.06650
C1732       C  0.53401637  0.04457273  0.78279427    -0.07070
Co1733     Co  0.93191460  0.46754843  0.66242666     0.74180
N1734       N  0.90787111  0.44494756  0.72314097    -0.26250
Co1735     Co  0.96487736  0.44605034  0.72651846     0.74070
C1736       C  0.99847984  0.01534360  0.80103030     0.42370
N1737       N  0.56301729  0.09885234  0.71410083     0.00770
N1738       N  0.98713490  0.48970537  0.75934414     0.00880
N1739       N  0.91418484  0.37759203  0.65247267    -0.47100
H1740       H  0.86967839  0.00903676  0.65749859     0.06630
N1741       N  0.89536246  0.45289951  0.69875873     0.01160
N1742       N  0.52215161  0.44743464  0.72827550     0.00900
C1743       C  0.56856381  0.42894699  0.72916510     0.42510
N1744       N  0.55024478  0.10584982  0.68953536    -0.25710
C1745       C  0.95987040  0.46531955  0.60048192    -0.06630
N1746       N  0.96695147  0.09480608  0.65304558    -0.46810
N1747       N  0.52644915  0.41404295  0.73012432    -0.47040
C1748       C  0.49584060  0.99485613  0.58253240     0.42280
N1749       N  0.93107043  0.41104549  0.66908199     0.01150
N1750       N  0.58452993  0.06354116  0.66070010    -0.25730
N1751       N  0.93465775  0.02505904  0.65744462    -0.26220
N1752       N  0.59672972  0.05515579  0.68499270     0.00790
H1753       H  0.61626204  0.08965142  0.62145268     0.06680
H1754       H  0.62390089  0.49882381  0.72471759     0.06710
N1755       N  0.94358294  0.40358486  0.69361481    -0.26270
N1756       N  0.52420882  0.02596180  0.75748011    -0.25880
N1757       N  0.50635966  0.01959969  0.62442490     0.01150
C1758       C  0.84234701  0.43285956  0.72618892     0.42550
C1759       C  0.55929771  0.14588553  0.68802988    -0.07130
N1760       N  0.55896553  0.48377551  0.72611902    -0.25880
H1761       H  0.56379158  0.07304440  0.78829512     0.06700
N1762       N  0.85613249  0.44524805  0.69957724    -0.47100
H1763       H  0.55299780  0.15998726  0.66993020     0.06690
C1764       C  0.64976795  0.07551310  0.65788488     0.42390
C1765       C  0.90325472  0.03291959  0.65637445    -0.06630
Co1766     Co  0.52826569  0.06289810  0.65718948     0.73820
N1767       N  0.58177971  0.13343893  0.72975474    -0.46820
C1768       C  0.91757823  0.34726932  0.66665326     0.42650
N1769       N  0.52297231  0.02778446  0.59888733    -0.46810
Co1770     Co  0.56128817  0.04146616  0.72115421     0.73890
C1771       C  0.59026185  0.47540259  0.72646178    -0.07140
C1772       C  0.87634294  0.43187595  0.74178609    -0.06700
N1773       N  0.96923973  0.48340637  0.62600484    -0.26230
N1774       N  0.97103488  0.48197750  0.78502742    -0.46990
H1775       H  0.94059000  0.34848918  0.71215210     0.06660
C1776       C  0.61605286  0.07692377  0.64218856    -0.07110
Cl1777     Cl  0.99652171  0.00452408  0.69188092    -0.50120
C1778       C  0.58097689  0.16454298  0.71440422     0.42420
H1779       H  0.93019667  0.43696464  0.59466949     0.06630
N1780       N  0.63562306  0.06234999  0.68428336    -0.46830
C1781       C  0.59517098  0.21510156  0.75165019    -0.20500
C1782       C  0.59950792  0.20907092  0.72350354    -0.07060
C1783       C  0.61956663  0.24504495  0.70516617     0.13800
C1784       C  0.63501155  0.28583627  0.71589470    -0.20550
C1785       C  0.63426571  0.29306484  0.74491362    -0.07070
C1786       C  0.60916615  0.25549740  0.76219504     0.13790
C1787       C  0.59067808  0.25408416  0.79027104    -0.23900
H1788       H  0.57788737  0.18728035  0.76534673     0.15080
H1789       H  0.65041990  0.31291610  0.70159626     0.15110
C1790       C  0.62763783  0.24168079  0.67467896    -0.23850
H1791       H  0.60971727  0.25094322  0.80741693     0.05320
H1792       H  0.55763183  0.22610547  0.79197001     0.08550
H1793       H  0.58684620  0.28120540  0.79283296     0.08550
H1794       H  0.59764400  0.22812151  0.66239350     0.08530
H1795       H  0.64187214  0.22186401  0.67271566     0.08530
H1796       H  0.65018544  0.27340048  0.66510581     0.05310
C1797       C  0.58978523  0.34030198  0.74693660    -0.20500
C1798       C  0.63328532  0.35975532  0.73992611    -0.07060
C1799       C  0.64924954  0.39544003  0.72079956     0.13800
C1800       C  0.62802414  0.41787297  0.71840615    -0.20550
C1801       C  0.58808691  0.40233501  0.73065879    -0.07070
C1802       C  0.56756746  0.36139045  0.74349657     0.13790
C1803       C  0.52333109  0.34045574  0.75539261    -0.23900
H1804       H  0.57390564  0.30991433  0.75765139     0.15080
H1805       H  0.64203331  0.44688566  0.70572557     0.15110
C1806       C  0.68492807  0.40881671  0.70024749    -0.23850
H1807       H  0.51313157  0.30917560  0.76562674     0.05320
H1808       H  0.50011266  0.33470333  0.73830954     0.08550
H1809       H  0.52234355  0.36106508  0.77155018     0.08550
H1810       H  0.69499361  0.38571083  0.69857660     0.08530
H1811       H  0.71254755  0.44068748  0.70552931     0.08530
H1812       H  0.67371555  0.41100139  0.67876131     0.05310
C1813       C  0.72629722  0.34561496  0.73374528    -0.20500
C1814       C  0.70775408  0.36663551  0.74634355    -0.07060
C1815       C  0.73678419  0.41068639  0.75319950     0.13800
C1816       C  0.78035175  0.43080463  0.74684664    -0.20550
C1817       C  0.79683669  0.40943384  0.73365356    -0.07070
C1818       C  0.76967092  0.36635920  0.72714143     0.13790
C1819       C  0.78670942  0.34176757  0.71373992    -0.23900
H1820       H  0.70818857  0.31187901  0.73044428     0.15080
H1821       H  0.80176885  0.46405522  0.75189896     0.15110
C1822       C  0.72454564  0.43907301  0.76686908    -0.23850
H1823       H  0.76134116  0.30806374  0.71014500     0.05320
H1824       H  0.81137825  0.34200580  0.72761739     0.08550
H1825       H  0.80100142  0.35651484  0.69305713     0.08550
H1826       H  0.69028763  0.42508301  0.76907319     0.08530
H1827       H  0.73613723  0.46855367  0.75390958     0.08530
H1828       H  0.73966459  0.44815409  0.78798965     0.05310
C1829       C  0.64431962  0.28544302  0.91766186    -0.20500
C1830       C  0.63528310  0.29700544  0.89102358    -0.07060
C1831       C  0.60094156  0.26298238  0.87536987     0.13800
C1832       C  0.58798240  0.22074022  0.88200662    -0.20550
C1833       C  0.60142506  0.21034252  0.90673866    -0.07070
C1834       C  0.62870142  0.24285888  0.92543124     0.13790
C1835       C  0.64289924  0.23314660  0.95305581    -0.23900
H1836       H  0.66521211  0.31028320  0.93210143     0.15080
H1837       H  0.56375573  0.19514859  0.86928347     0.15110
C1838       C  0.57049565  0.26854219  0.85672588    -0.23850
H1839       H  0.66659503  0.26264822  0.96405292     0.05320
H1840       H  0.65789676  0.21442651  0.94929103     0.08550
H1841       H  0.61528462  0.21487329  0.96722853     0.08550
H1842       H  0.58502822  0.28517494  0.83721671     0.08530
H1843       H  0.55834964  0.28596603  0.86765862     0.08530
H1844       H  0.54212818  0.23758536  0.85057811     0.05310
C1845       C  0.66259141  0.41085775  0.90455946    -0.20500
C1846       C  0.63914796  0.36674767  0.89902338    -0.07060
C1847       C  0.59601285  0.34516086  0.90915910     0.13800
C1848       C  0.57539869  0.36785648  0.91055426    -0.20550
C1849       C  0.59775897  0.41223499  0.90828350    -0.07070
C1850       C  0.64275609  0.43418784  0.90785559     0.13790
C1851       C  0.67040906  0.48191869  0.91014186    -0.23900
H1852       H  0.69652884  0.42797321  0.90635210     0.15080
H1853       H  0.54184721  0.35059919  0.91543267     0.15110
C1854       C  0.57502622  0.30416207  0.92659085    -0.23850
H1855       H  0.70484111  0.49324727  0.90993508     0.05320
H1856       H  0.66389034  0.49210765  0.93019332     0.08550
H1857       H  0.66420798  0.49748549  0.89199458     0.08550
H1858       H  0.59722708  0.30618510  0.94339677     0.08530
H1859       H  0.56289582  0.27525606  0.91420033     0.08530
H1860       H  0.54668950  0.29908529  0.93795714     0.05310
C1861       C  0.78381272  0.43180223  0.88398695    -0.20500
C1862       C  0.79972854  0.40956159  0.89778800    -0.07060
C1863       C  0.77271436  0.36596750  0.90332621     0.13800
C1864       C  0.72934701  0.34629652  0.89657923    -0.20550
C1865       C  0.71012573  0.36928762  0.88690404    -0.07070
C1866       C  0.74041687  0.41239332  0.87720126     0.13790
C1867       C  0.73082845  0.44015353  0.85860734    -0.23900
H1868       H  0.80576680  0.46494288  0.87821153     0.15080
H1869       H  0.71193325  0.31214559  0.89732945     0.15110
C1870       C  0.78969324  0.33996037  0.91615099    -0.23850
H1871       H  0.74660679  0.44545791  0.83800668     0.05320
H1872       H  0.74350790  0.47157791  0.86848805     0.08550
H1873       H  0.69717874  0.42737476  0.85476499     0.08550
H1874       H  0.80440557  0.35283359  0.93699815     0.08530
H1875       H  0.81402884  0.34126066  0.90214670     0.08530
H1876       H  0.76416811  0.30603256  0.91930468     0.05310
C1877       C  0.64063714  0.36328848  0.80165698    -0.20500
C1878       C  0.66016179  0.34433788  0.78778881    -0.07060
C1879       C  0.68020829  0.32812532  0.80561842     0.13800
C1880       C  0.67662971  0.32817120  0.83486555    -0.20550
C1881       C  0.65677319  0.34652395  0.84877226    -0.07070
C1882       C  0.63729263  0.36358220  0.83114251     0.13790
C1883       C  0.61056538  0.38007632  0.84186982    -0.23900
H1884       H  0.62748485  0.37874292  0.78962791     0.15080
H1885       H  0.69033033  0.31351188  0.84749140     0.15110
C1886       C  0.70596913  0.31029983  0.79504981    -0.23850
H1887       H  0.59577060  0.38874365  0.82451621     0.05320
H1888       H  0.62989145  0.40934568  0.85395063     0.08550
H1889       H  0.58383447  0.35520574  0.85443085     0.08550
H1890       H  0.73685034  0.33655929  0.78694346     0.08530
H1891       H  0.68854528  0.28583548  0.77897063     0.08530
H1892       H  0.71409368  0.29457745  0.81210749     0.05310
C1893       C  0.72504188  0.11782401  0.67225200    -0.20500
C1894       C  0.69507459  0.09694117  0.65070914    -0.07060
C1895       C  0.70896754  0.09575960  0.62365573     0.13800
C1896       C  0.75259224  0.11753388  0.61844488    -0.20550
C1897       C  0.78368713  0.14050792  0.63963806    -0.07070
C1898       C  0.76880911  0.13870479  0.66748445     0.13790
C1899       C  0.79739919  0.15763197  0.69303002    -0.23900
H1900       H  0.71427416  0.11787603  0.69329803     0.15080
H1901       H  0.76161286  0.11549661  0.59740835     0.15110
C1902       C  0.67834093  0.07038327  0.60027145    -0.23850
H1903       H  0.78593484  0.13360715  0.71046034     0.05320
H1904       H  0.79649278  0.18550389  0.70016811     0.08550
H1905       H  0.83071183  0.16720539  0.68942615     0.08550
H1906       H  0.66062964  0.08547240  0.59300908     0.08530
H1907       H  0.65585409  0.03721434  0.60765902     0.08530
H1908       H  0.69508392  0.06883050  0.58162770     0.05310
C1909       C  0.89183998  0.23495411  0.65733812    -0.20500
C1910       C  0.85070510  0.21384704  0.64468393    -0.07060
C1911       C  0.82945854  0.23754721  0.64457192     0.13800
C1912       C  0.85282406  0.28116710  0.65110162    -0.20550
C1913       C  0.89558410  0.30206917  0.65907059    -0.07070
C1914       C  0.91526341  0.27858777  0.66249556     0.13790
C1915       C  0.96169558  0.29948955  0.67063501    -0.23900
H1916       H  0.90679905  0.21816253  0.66434171     0.15080
H1917       H  0.83727504  0.29919837  0.65048756     0.15110
C1918       C  0.78262982  0.21951836  0.63809135    -0.23850
H1919       H  0.97294056  0.27696988  0.66976238     0.05320
H1920       H  0.96702668  0.31127104  0.69237771     0.08550
H1921       H  0.98142823  0.32640679  0.65587557     0.08550
H1922       H  0.76332088  0.20395860  0.65709448     0.08530
H1923       H  0.77076870  0.19762654  0.62018094     0.08530
H1924       H  0.77649897  0.24509552  0.63209651     0.05310
C1925       C  0.86278275  0.08554642  0.66155415    -0.20500
C1926       C  0.90423134  0.10465645  0.65170058    -0.07060
C1927       C  0.92280960  0.14481954  0.63827866     0.13800
C1928       C  0.89882369  0.16396481  0.63462461    -0.20550
C1929       C  0.85569371  0.14476371  0.64345250    -0.07070
C1930       C  0.83708304  0.10250563  0.65608586     0.13790
C1931       C  0.79022636  0.07049939  0.66118392    -0.23900
H1932       H  0.84916203  0.05497332  0.67230814     0.15080
H1933       H  0.91314988  0.19364914  0.62265371     0.15110
C1934       C  0.96709130  0.16703184  0.62633382    -0.23850
H1935       H  0.78364725  0.03823466  0.66688280     0.05320
H1936       H  0.77128970  0.06529483  0.64175317     0.08550
H1937       H  0.77848158  0.07898055  0.67940799     0.08550
H1938       H  0.96909766  0.14653543  0.61055519     0.08530
H1939       H  0.99062012  0.17419714  0.64351123     0.08530
H1940       H  0.97594428  0.19768419  0.61565899     0.05310
C1941       C  0.71513682  0.07999344  0.99726632    -0.20500
C1942       C  0.69956214  0.10339446  0.98469559    -0.07060
C1943       C  0.72731372  0.14707773  0.97950039     0.13800
C1944       C  0.77073450  0.16617270  0.98633731    -0.20550
C1945       C  0.78881987  0.14271183  0.99722029    -0.07070
C1946       C  0.75838348  0.09855448  0.00422624     0.13790
C1947       C  0.76809104  0.06840016  0.51932657    -0.23900
H1948       H  0.69303303  0.04638260  0.00168838     0.15080
H1949       H  0.78967584  0.20023214  0.98375322     0.15110
C1950       C  0.71100772  0.17368454  0.96674269    -0.23850
H1951       H  0.75138858  0.05835885  0.53984364     0.05320
H1952       H  0.80159547  0.08208007  0.52328740     0.08550
H1953       H  0.75725610  0.03977132  0.00638406     0.08550
H1954       H  0.68657472  0.17239917  0.98064806     0.08530
H1955       H  0.69654129  0.16127409  0.94576774     0.08530
H1956       H  0.73681704  0.20756440  0.96392386     0.05310
C1957       C  0.88519117  0.24842296  0.51495535    -0.20500
C1958       C  0.86206757  0.21538383  0.99520782    -0.07060
C1959       C  0.86398977  0.22897935  0.96645589     0.13800
C1960       C  0.88307107  0.27264322  0.95979271    -0.20550
C1961       C  0.90156603  0.30390438  0.98048863    -0.07070
C1962       C  0.90425327  0.29162624  0.00824469     0.13790
C1963       C  0.92949874  0.32369862  0.53080346    -0.23900
H1964       H  0.89105594  0.24122755  0.53599575     0.15080
H1965       H  0.88271536  0.28228421  0.93808592     0.15110
C1966       C  0.84526234  0.19919801  0.94196611    -0.23850
H1967       H  0.93384480  0.30853712  0.55000113     0.05320
H1968       H  0.91256605  0.33933200  0.53743720     0.08550
H1969       H  0.96165621  0.34779787  0.02298426     0.08550
H1970       H  0.82177441  0.20449391  0.93067081     0.08530
H1971       H  0.82856110  0.16528199  0.94798253     0.08530
H1972       H  0.87101548  0.20584090  0.92718393     0.05310
C1973       C  0.84203049  0.11041642  0.97554982    -0.20500
C1974       C  0.86350320  0.14835749  0.99134562    -0.07060
C1975       C  0.90894812  0.16793770  0.99399774     0.13800
C1976       C  0.92796857  0.14541466  0.98645433    -0.20550
C1977       C  0.90459235  0.10439978  0.97577815    -0.07070
C1978       C  0.86131805  0.08747259  0.96883275     0.13790
C1979       C  0.83518434  0.04543251  0.95428559    -0.23900
H1980       H  0.80932253  0.09711571  0.46920784     0.15080
H1981       H  0.96163122  0.15957314  0.99045635     0.15110
C1982       C  0.93912829  0.21137785  0.00607834    -0.23850
H1983       H  0.80262631  0.03818722  0.44897762     0.05320
H1984       H  0.83168363  0.01926247  0.46825450     0.08550
H1985       H  0.85082977  0.04613463  0.93441192     0.08550
H1986       H  0.92978184  0.21325114  0.02765323     0.08530
H1987       H  0.94116075  0.23654317  0.99180804     0.08530
H1988       H  0.97231161  0.21869162  0.00802443     0.05310
C1989       C  0.84192163  0.13950146  0.58537692    -0.20500
C1990       C  0.83663838  0.17051817  0.59865528    -0.06880
C1991       C  0.82873931  0.19631150  0.57964793     0.13800
C1992       C  0.81940486  0.18432425  0.55146394    -0.20550
C1993       C  0.83754455  0.16369991  0.53820121    -0.07070
C1994       C  0.85124012  0.14184869  0.55674952     0.13790
C1995       C  0.87676910  0.12190590  0.54941895    -0.23900
H1996       H  0.84184328  0.11437637  0.59748514     0.15080
H1997       H  0.80743766  0.20036709  0.53844281     0.15110
C1998       C  0.84339474  0.24241972  0.58413326    -0.23850
H1999       H  0.87825041  0.10260584  0.56721288     0.05320
H2000       H  0.91034310  0.14713240  0.54590332     0.08550
H2001       H  0.86430249  0.10002965  0.53159968     0.08550
H2002       H  0.87144978  0.25810229  0.59830506     0.08530
H2003       H  0.81691313  0.24623796  0.58994753     0.08530
H2004       H  0.85508622  0.26141113  0.56433741     0.05310
C2005       C  0.83833498  0.66691075  0.00512580    -0.02680
C2006       C  0.83147134  0.66761052  0.13200824    -0.02680
C2007       C  0.65955141  0.84538038  0.38183877    -0.02680
C2008       C  0.65904262  0.84111363  0.25463386    -0.02680
C2009       C  0.58239719  0.66499139  0.41384210     0.42270
N2010       N  0.55506414  0.60749634  0.43827150     0.01160
C2011       C  0.52658670  0.91332154  0.40861095    -0.06720
H2012       H  0.93727159  0.94958799  0.34302079     0.06650
C2013       C  0.85874367  0.94973701  0.43490781    -0.07070
Co2014     Co  0.56092472  0.53970279  0.41042307     0.74180
N2015       N  0.98325907  0.98577179  0.37539759    -0.26250
Co2016     Co  0.96325761  0.94488007  0.41054653     0.74070
C2017       C  0.84436588  0.93292303  0.40691974     0.42370
N2018       N  0.94096833  0.53147264  0.47380920     0.00770
N2019       N  0.90736082  0.94546560  0.41342889     0.00880
N2020       N  0.58959795  0.97601247  0.40841113    -0.47100
H2021       H  0.59498241  0.63461515  0.37652828     0.06630
N2022       N  0.52037996  0.52212888  0.37496482     0.01160
N2023       N  0.94395442  0.90483015  0.44584044     0.00900
C2024       C  0.91960058  0.84902339  0.47217325     0.42510
N2025       N  0.97869217  0.56696961  0.47383511    -0.25710
C2026       C  0.64000887  0.56400606  0.44741957    -0.06630
N2027       N  0.56551736  0.64754141  0.43898219    -0.46810
N2028       N  0.93555908  0.86532674  0.44650943    -0.47040
C2029       C  0.65479639  0.58065782  0.47541804     0.42280
N2030       N  0.55712327  0.98170023  0.40869956     0.01150
N2031       N  0.51388253  0.52568248  0.00818668    -0.25730
N2032       N  0.56441749  0.59751859  0.41413609    -0.26220
N2033       N  0.97626651  0.98991427  0.00831906     0.00790
H2034       H  0.55922931  0.56079817  0.04116429     0.06680
H2035       H  0.90344798  0.88040683  0.00724817     0.06710
N2036       N  0.51994440  0.94558555  0.40896051    -0.26270
N2037       N  0.89787697  0.95638082  0.43712345    -0.25880
N2038       N  0.59085732  0.56611908  0.46993582     0.01150
C2039       C  0.99717806  0.51425526  0.33217701     0.42550
C2040       C  0.97334323  0.60002035  0.47311874    -0.07130
N2041       N  0.93363243  0.91531638  0.46937459    -0.25880
H2042       H  0.84137045  0.95313407  0.45161299     0.06700
N2043       N  0.53031586  0.53981343  0.34933483    -0.47100
H2044       H  0.99882481  0.63306866  0.47242541     0.06690
C2045       C  0.49814892  0.49665099  0.05137192     0.42390
C2046       C  0.58142523  0.63196842  0.39698715    -0.06630
Co2047     Co  0.53493958  0.56682284  0.47299120     0.73820
N2048       N  0.90923240  0.53848489  0.47329099    -0.46820
C2049       C  0.57303115  0.93359978  0.40846547     0.42650
N2050       N  0.62319205  0.58210630  0.48807818    -0.46810
Co2051     Co  0.93663609  0.97293511  0.47257447     0.73890
C2052       C  0.91765437  0.88197450  0.48728547    -0.07140
C2053       C  0.96606647  0.97839223  0.34946657    -0.06700
N2054       N  0.60036034  0.55619512  0.44580643    -0.26230
N2055       N  0.87555681  0.93007561  0.39493644    -0.46990
H2056       H  0.50180131  0.87999858  0.40872989     0.06660
C2057       C  0.53028957  0.53242141  0.03437368    -0.07110
Cl2058     Cl  0.99898855  0.50607757  0.44164812    -0.50120
C2059       C  0.92719970  0.58123272  0.47256645     0.42420
H2060       H  0.65743817  0.56163324  0.43030181     0.06630
N2061       N  0.96533094  0.97191303  0.03381602    -0.46830
C2062       C  0.92476580  0.57929123  0.15355675     0.42270
N2063       N  0.97137210  0.56153502  0.15538781     0.01160
C2064       C  0.93626163  0.86416253  0.19403486    -0.06720
H2065       H  0.87606437  0.92024172  0.26295071     0.06650
C2066       C  0.53402151  0.54456897  0.28279431    -0.07070
Co2067     Co  0.93190521  0.96754666  0.16242754     0.74180
N2068       N  0.90785993  0.94494339  0.22314145    -0.26250
Co2069     Co  0.96486628  0.94604648  0.22651937     0.74070
C2070       C  0.99848598  0.51533984  0.30103021     0.42370
N2071       N  0.56302344  0.59885216  0.21410310     0.00770
N2072       N  0.98712279  0.98970103  0.25934570     0.00880
N2073       N  0.91418025  0.87759303  0.15247060    -0.47100
H2074       H  0.86968546  0.50903955  0.15750212     0.06630
N2075       N  0.89535183  0.95289593  0.19875920     0.01160
N2076       N  0.52214073  0.94743134  0.22827654     0.00900
C2077       C  0.56855292  0.92894385  0.22916616     0.42510
N2078       N  0.55025057  0.60584984  0.18953786    -0.25710
C2079       C  0.95986392  0.96532101  0.10048269    -0.06630
N2080       N  0.96695873  0.59480845  0.15304836    -0.46810
N2081       N  0.52643828  0.91403970  0.23012511    -0.47040
C2082       C  0.49584715  0.49486193  0.08253252     0.42280
N2083       N  0.93106192  0.91104416  0.16908182     0.01150
N2084       N  0.58453740  0.56354393  0.16070100    -0.25730
N2085       N  0.93466472  0.52506140  0.15744732    -0.26220
N2086       N  0.59673726  0.55515793  0.18499336     0.00790
H2087       H  0.61626955  0.58965500  0.12145373     0.06680
H2088       H  0.62389003  0.99882086  0.22471952     0.06710
N2089       N  0.94357389  0.90358227  0.19361448    -0.26270
N2090       N  0.52421533  0.52595812  0.25748019    -0.25880
N2091       N  0.50636658  0.51960404  0.12442542     0.01150
C2092       C  0.84233647  0.93285714  0.22618929     0.42550
C2093       C  0.55930068  0.64588442  0.18803316    -0.07130
N2094       N  0.55895459  0.98377235  0.22612053    -0.25880
H2095       H  0.56379556  0.57304189  0.28829525     0.06700
N2096       N  0.85612224  0.94524551  0.19957764    -0.47100
H2097       H  0.55299892  0.65998549  0.16993397     0.06690
C2098       C  0.64977525  0.57551531  0.15788550     0.42390
C2099       C  0.90326185  0.53292222  0.15637801    -0.06630
Co2100     Co  0.52827266  0.56290048  0.15719109     0.73820
N2101       N  0.58178382  0.63343824  0.22975769    -0.46820
C2102       C  0.91757606  0.84727074  0.16664957     0.42650
N2103       N  0.52297930  0.52778953  0.09888784    -0.46810
Co2104     Co  0.56129535  0.54146570  0.22115464     0.73890
C2105       C  0.59025097  0.97539953  0.22646334    -0.07140
C2106       C  0.87633176  0.93187239  0.24178648    -0.06700
N2107       N  0.96923182  0.98340677  0.12600597    -0.26230
N2108       N  0.97102280  0.98197351  0.28502899    -0.46990
H2109       H  0.94058735  0.84848697  0.21214797     0.06660
C2110       C  0.61606036  0.57692690  0.14218945    -0.07110
Cl2111     Cl  0.99652905  0.50452452  0.19188111    -0.50120
C2112       C  0.58097886  0.66454164  0.21440758     0.42420
H2113       H  0.93019076  0.93696597  0.09466959     0.06630
N2114       N  0.63563041  0.56235167  0.18428386    -0.46830
C2115       C  0.59516779  0.71509985  0.25165308    -0.20500
C2116       C  0.59950652  0.70906920  0.22350671    -0.07060
C2117       C  0.61956161  0.74504281  0.20516863     0.13800
C2118       C  0.63500189  0.78583368  0.21589625    -0.20550
C2119       C  0.63425585  0.79306259  0.24491498    -0.07070
C2120       C  0.60915816  0.75549528  0.26219679     0.13790
C2121       C  0.59066710  0.75408117  0.29027177    -0.23900
H2122       H  0.57788578  0.68727884  0.26535000     0.15080
H2123       H  0.65040816  0.81291324  0.20159744     0.15110
C2124       C  0.62763469  0.74167932  0.17468167    -0.23850
H2125       H  0.60970293  0.75093665  0.30741854     0.05320
H2126       H  0.55761949  0.72610416  0.29196805     0.08550
H2127       H  0.58683797  0.78120395  0.29283439     0.08550
H2128       H  0.59764140  0.72811907  0.16239551     0.08530
H2129       H  0.64187078  0.72186407  0.17271892     0.08530
H2130       H  0.65018169  0.77339940  0.16510876     0.05310
C2131       C  0.58977460  0.84029912  0.24693773    -0.20500
C2132       C  0.63327480  0.85975282  0.23992738    -0.07060
C2133       C  0.64923891  0.89543753  0.22080084     0.13800
C2134       C  0.62801358  0.91787047  0.21840762    -0.20550
C2135       C  0.58807596  0.90233190  0.23065974    -0.07070
C2136       C  0.56755613  0.86138678  0.24349676     0.13790
C2137       C  0.52331807  0.84045008  0.25539029    -0.23900
H2138       H  0.57389511  0.80991140  0.25765248     0.15080
H2139       H  0.64202292  0.94688345  0.20572732     0.15110
C2140       C  0.68491711  0.90881409  0.20024851    -0.23850
H2141       H  0.51311823  0.80916950  0.26562383     0.05320
H2142       H  0.50010163  0.83469802  0.23830576     0.08550
H2143       H  0.52232754  0.86105778  0.27154782     0.08550
H2144       H  0.69498241  0.88570807  0.19857738     0.08530
H2145       H  0.71253675  0.94068481  0.20553023     0.08530
H2146       H  0.67370430  0.91099886  0.17876244     0.05310
C2147       C  0.72628682  0.84561303  0.23374582    -0.20500
C2148       C  0.70774374  0.86663347  0.24634434    -0.07060
C2149       C  0.73677386  0.91068439  0.25320019     0.13800
C2150       C  0.78034137  0.93080266  0.24684709    -0.20550
C2151       C  0.79682613  0.90943186  0.23365376    -0.07070
C2152       C  0.76966028  0.86635731  0.22714155     0.13790
C2153       C  0.78669844  0.84176573  0.21373953    -0.23900
H2154       H  0.70817848  0.81187706  0.23044507     0.15080
H2155       H  0.80175855  0.96405321  0.25189946     0.15110
C2156       C  0.72453533  0.93907093  0.26686994    -0.23850
H2157       H  0.76133007  0.80806196  0.21014453     0.05320
H2158       H  0.81136745  0.84200374  0.22761667     0.08550
H2159       H  0.80099010  0.85651318  0.19305670     0.08550
H2160       H  0.69027733  0.92508077  0.26907430     0.08530
H2161       H  0.73612661  0.96855152  0.25391041     0.08530
H2162       H  0.73965459  0.94815216  0.28799041     0.05310
C2163       C  0.64431431  0.78544132  0.41766241    -0.20500
C2164       C  0.63527654  0.79700388  0.39102460    -0.07060
C2165       C  0.60093460  0.76298082  0.37537115     0.13800
C2166       C  0.58797628  0.72073870  0.38200733    -0.20550
C2167       C  0.60142083  0.71034102  0.40673851    -0.07070
C2168       C  0.62869756  0.74285722  0.42543108     0.13790
C2169       C  0.64289742  0.73314478  0.45305475    -0.23900
H2170       H  0.66520723  0.81028141  0.43210192     0.15080
H2171       H  0.56374919  0.69514707  0.36928439     0.15110
C2172       C  0.57048795  0.76854059  0.35672792    -0.23850
H2173       H  0.66659324  0.76264635  0.46405190     0.05320
H2174       H  0.65789561  0.71442564  0.44928871     0.08550
H2175       H  0.61528370  0.71487041  0.46722803     0.08550
H2176       H  0.58501960  0.78517289  0.33721841     0.08530
H2177       H  0.55834271  0.78596481  0.36766107     0.08530
H2178       H  0.54212004  0.73758371  0.35058073     0.05310
C2179       C  0.66258591  0.91085670  0.40456051    -0.20500
C2180       C  0.63914223  0.86674648  0.39902488    -0.07060
C2181       C  0.59600758  0.84515992  0.40916136     0.13800
C2182       C  0.57539347  0.86785557  0.41055671    -0.20550
C2183       C  0.59775359  0.91223400  0.40828487    -0.07070
C2184       C  0.64275068  0.93418690  0.40785655     0.13790
C2185       C  0.67040362  0.98191785  0.41014207    -0.23900
H2186       H  0.69652336  0.92797215  0.40635280     0.15080
H2187       H  0.54184222  0.85059847  0.41543580     0.15110
C2188       C  0.57502163  0.80416134  0.42659331    -0.23850
H2189       H  0.70483567  0.99324646  0.40993504     0.05320
H2190       H  0.66388532  0.99210751  0.43019339     0.08550
H2191       H  0.66420207  0.99748398  0.39199460     0.08550
H2192       H  0.59722323  0.80618445  0.44339870     0.08530
H2193       H  0.56289062  0.77525522  0.41420280     0.08530
H2194       H  0.54668548  0.79908484  0.43796021     0.05310
C2195       C  0.78380625  0.93180016  0.38398721    -0.20500
C2196       C  0.79972201  0.90955905  0.39778774    -0.07060
C2197       C  0.77270783  0.86596478  0.40332525     0.13800
C2198       C  0.72934047  0.84629416  0.39657849    -0.20550
C2199       C  0.71011921  0.86928570  0.38690423    -0.07070
C2200       C  0.74041037  0.91239145  0.37720159     0.13790
C2201       C  0.73082193  0.94015181  0.35860785    -0.23900
H2202       H  0.80576036  0.96494094  0.37821213     0.15080
H2203       H  0.71192661  0.81214321  0.39732814     0.15110
C2204       C  0.78968669  0.83995708  0.41614906    -0.23850
H2205       H  0.74660034  0.94545643  0.33800719     0.05320
H2206       H  0.74350132  0.97157608  0.36848869     0.08550
H2207       H  0.69717218  0.92737295  0.35476545     0.08550
H2208       H  0.80439912  0.85282939  0.43699635     0.08530
H2209       H  0.81402219  0.84125793  0.40214439     0.08530
H2210       H  0.76416153  0.80602917  0.41930226     0.05310
C2211       C  0.64062768  0.86328615  0.30165832    -0.20500
C2212       C  0.66015210  0.84433559  0.28778984    -0.07060
C2213       C  0.68019867  0.82812269  0.30561907     0.13800
C2214       C  0.67662082  0.82816871  0.33486619    -0.20550
C2215       C  0.65676529  0.84652211  0.34877329    -0.07070
C2216       C  0.63728432  0.86358035  0.33114393     0.13790
C2217       C  0.61055789  0.88007503  0.34187178    -0.23900
H2218       H  0.62747467  0.87874008  0.28962941     0.15080
H2219       H  0.69032150  0.81350919  0.34749174     0.15110
C2220       C  0.70595984  0.81029773  0.29505014    -0.23850
H2221       H  0.59576248  0.88874215  0.32451848     0.05320
H2222       H  0.62988481  0.90934468  0.35395216     0.08550
H2223       H  0.58382747  0.85520486  0.35443336     0.08550
H2224       H  0.73684089  0.83655751  0.28694382     0.08530
H2225       H  0.68853627  0.78583346  0.27897090     0.08530
H2226       H  0.71408477  0.79457541  0.31210764     0.05310
C2227       C  0.72505015  0.61782062  0.17225191    -0.20500
C2228       C  0.69508144  0.59694064  0.15070920    -0.07060
C2229       C  0.70897253  0.59575917  0.12365516     0.13800
C2230       C  0.75259677  0.61753276  0.11844319    -0.20550
C2231       C  0.78369304  0.64050664  0.13963571    -0.07070
C2232       C  0.76881711  0.63870135  0.16748301     0.13790
C2233       C  0.79740918  0.65762596  0.19302804    -0.23900
H2234       H  0.71428387  0.61787127  0.19329865     0.15080
H2235       H  0.76161591  0.61549519  0.09740627     0.15110
C2236       C  0.67834445  0.57038364  0.10027128    -0.23850
H2237       H  0.78595040  0.63359666  0.21045545     0.05320
H2238       H  0.79649717  0.68549229  0.20017169     0.08550
H2239       H  0.83072361  0.66720807  0.18942123     0.08550
H2240       H  0.66063441  0.58547426  0.09300931     0.08530
H2241       H  0.65585664  0.53721504  0.10765902     0.08530
H2242       H  0.69508608  0.56882967  0.08162719     0.05310
C2243       C  0.89185095  0.73496193  0.15732568    -0.20500
C2244       C  0.85071026  0.71384830  0.14467942    -0.07060
C2245       C  0.82945921  0.73754449  0.14457365     0.13800
C2246       C  0.85282252  0.78116448  0.15110319    -0.20550
C2247       C  0.89558548  0.80207179  0.15906472    -0.07070
C2248       C  0.91527154  0.77859613  0.16248216     0.13790
C2249       C  0.96170749  0.79950528  0.17061333    -0.23900
H2250       H  0.90681696  0.71817564  0.16432514     0.15080
H2251       H  0.83726944  0.79919191  0.15049511     0.15110
C2252       C  0.78262759  0.71951241  0.13810157    -0.23850
H2253       H  0.97295653  0.77698912  0.16973850     0.05320
H2254       H  0.96704639  0.81129212  0.19235506     0.08550
H2255       H  0.98143124  0.82642043  0.15585025     0.08550
H2256       H  0.76332734  0.70395903  0.15710899     0.08530
H2257       H  0.77075837  0.69761559  0.12019401     0.08530
H2258       H  0.77649378  0.74508736  0.13210608     0.05310
C2259       C  0.86279024  0.58554974  0.16155545    -0.20500
C2260       C  0.90423875  0.60465893  0.15170206    -0.07060
C2261       C  0.92281557  0.64481924  0.13827641     0.13800
C2262       C  0.89882903  0.66396353  0.13462003    -0.20550
C2263       C  0.85569961  0.64476401  0.14344880    -0.07070
C2264       C  0.83708909  0.60250606  0.15608260     0.13790
C2265       C  0.79023124  0.57049475  0.16117281    -0.23900
H2266       H  0.84916986  0.55497797  0.17231127     0.15080
H2267       H  0.91315408  0.69364518  0.12264616     0.15110
C2268       C  0.96709615  0.66702911  0.12632993    -0.23850
H2269       H  0.78365377  0.53822972  0.16686879     0.05320
H2270       H  0.77130152  0.56529375  0.14173908     0.08550
H2271       H  0.77847713  0.57896787  0.17939582     0.08550
H2272       H  0.96910112  0.64652929  0.11055340     0.08530
H2273       H  0.99062657  0.67419809  0.14350685     0.08530
H2274       H  0.97594805  0.69767922  0.11565217     0.05310
C2275       C  0.71513771  0.57999711  0.49727232    -0.20500
C2276       C  0.69956389  0.60339942  0.48470202    -0.07060
C2277       C  0.72731569  0.64708418  0.47951203     0.13800
C2278       C  0.77073595  0.66617821  0.48635105    -0.20550
C2279       C  0.78882142  0.64271521  0.49722993    -0.07070
C2280       C  0.75838391  0.59855773  0.50423463     0.13790
C2281       C  0.76809973  0.56840026  0.01932172    -0.23900
H2282       H  0.69303366  0.54638571  0.50169228     0.15080
H2283       H  0.78967744  0.70023835  0.48377089     0.15110
C2284       C  0.71101076  0.67369338  0.46675700    -0.23850
H2285       H  0.75139887  0.55835904  0.03983935     0.05320
H2286       H  0.80160458  0.58208066  0.02328139     0.08550
H2287       H  0.75725725  0.53977493  0.50639253     0.08550
H2288       H  0.68657557  0.67240414  0.48066211     0.08530
H2289       H  0.69654733  0.66128788  0.44578063     0.08530
H2290       H  0.73682014  0.70757397  0.46394182     0.05310
C2291       C  0.88518860  0.74842354  0.01495565    -0.20500
C2292       C  0.86207174  0.71538319  0.49520845    -0.07060
C2293       C  0.86398150  0.72897399  0.46645653     0.13800
C2294       C  0.88305951  0.77263699  0.45979130    -0.20550
C2295       C  0.90156708  0.80390112  0.48048474    -0.07070
C2296       C  0.90427202  0.79162770  0.50823850     0.13790
C2297       C  0.92948229  0.82369762  0.03080829    -0.23900
H2298       H  0.89105075  0.74122759  0.03599667     0.15080
H2299       H  0.88269224  0.78227506  0.43808533     0.15110
C2300       C  0.84524331  0.69918841  0.44196954    -0.23850
H2301       H  0.93382621  0.80853581  0.05000661     0.05320
H2302       H  0.91254209  0.83932434  0.03743994     0.08550
H2303       H  0.96169425  0.84779507  0.52296046     0.08550
H2304       H  0.82174770  0.70447956  0.43068082     0.08530
H2305       H  0.82854878  0.66527341  0.44798817     0.08530
H2306       H  0.87098938  0.70583154  0.42718087     0.05310
C2307       C  0.84202526  0.61041050  0.47555572    -0.20500
C2308       C  0.86350238  0.64835443  0.49134861    -0.07060
C2309       C  0.90894798  0.66793338  0.49399638     0.13800
C2310       C  0.92796544  0.64540858  0.48645116    -0.20550
C2311       C  0.90458666  0.60439251  0.47577770    -0.07070
C2312       C  0.86131063  0.58746474  0.46883710     0.13790
C2313       C  0.83517310  0.54542232  0.45429335    -0.23900
H2314       H  0.80933123  0.59711954  0.96920273     0.15080
H2315       H  0.96162880  0.65956721  0.49044978     0.15110
C2316       C  0.93913366  0.71137428  0.50607397    -0.23850
H2317       H  0.80263788  0.53819299  0.94897197     0.05320
H2318       H  0.83169416  0.51926848  0.96825027     0.08550
H2319       H  0.85081291  0.54612154  0.43441773     0.08550
H2320       H  0.92979499  0.71324948  0.52765070     0.08530
H2321       H  0.94116426  0.73653886  0.49180386     0.08530
H2322       H  0.97231707  0.71868710  0.50801544     0.05310
C2323       C  0.84192804  0.63950234  0.08537318    -0.20500
C2324       C  0.83664075  0.67051658  0.09865147    -0.06880
C2325       C  0.82873351  0.69630409  0.07964400     0.13800
C2326       C  0.81940172  0.68431685  0.05145997    -0.20550
C2327       C  0.83754729  0.66369816  0.03819749    -0.07070
C2328       C  0.85124616  0.64184987  0.05674571     0.13790
C2329       C  0.87677790  0.62191020  0.04941488    -0.23900
H2330       H  0.84185253  0.61437869  0.09748128     0.15080
H2331       H  0.80743021  0.70035555  0.03843863     0.15110
C2332       C  0.84337076  0.74240722  0.08413038    -0.23850
H2333       H  0.87826075  0.60261074  0.06720862     0.05320
H2334       H  0.91035131  0.64713841  0.04589937     0.08550
H2335       H  0.86431240  0.60003414  0.03159549     0.08550
H2336       H  0.87142842  0.75809944  0.09829929     0.08530
H2337       H  0.81688142  0.74621102  0.08994799     0.08530
H2338       H  0.85505286  0.76139948  0.06433394     0.05310
C2339       C  0.83833398  0.66690980  0.50512855    -0.02680
C2340       C  0.83147331  0.66761126  0.63201104    -0.02680
C2341       C  0.65955432  0.84538202  0.88183779    -0.02680
C2342       C  0.65904453  0.84111483  0.75463264    -0.02680
C2343       C  0.58240208  0.66499352  0.91384167     0.42270
N2344       N  0.55506873  0.60749880  0.93827140     0.01160
C2345       C  0.52658729  0.91332158  0.90861059    -0.06720
H2346       H  0.93727417  0.94959041  0.84301938     0.06650
C2347       C  0.85874725  0.94974205  0.93490798    -0.07070
Co2348     Co  0.56092684  0.53970366  0.91042313     0.74180
N2349       N  0.98326102  0.98577371  0.87539667    -0.26250
Co2350     Co  0.96325921  0.94488208  0.91054619     0.74070
C2351       C  0.84436873  0.93292723  0.90692012     0.42370
N2352       N  0.94097264  0.53147781  0.97380868     0.00770
N2353       N  0.90736361  0.94546948  0.91342898     0.00880
N2354       N  0.58959865  0.97601230  0.90840937    -0.47100
H2355       H  0.59498558  0.63461604  0.87652775     0.06630
N2356       N  0.52038225  0.52213026  0.87496513     0.01160
N2357       N  0.94395593  0.90483280  0.94584075     0.00900
C2358       C  0.91960177  0.84902661  0.97217454     0.42510
N2359       N  0.97869685  0.56697434  0.97383498    -0.25710
C2360       C  0.64000949  0.56400387  0.94741905    -0.06630
N2361       N  0.56552255  0.64754405  0.93898188    -0.46810
N2362       N  0.93556016  0.86532923  0.94651048    -0.47040
C2363       C  0.65479770  0.58065542  0.97541733     0.42280
N2364       N  0.55712417  0.98170031  0.90869821     0.01150
N2365       N  0.51387949  0.52567865  0.50818626    -0.25730
N2366       N  0.56442118  0.59752030  0.91413594    -0.26220
N2367       N  0.97626313  0.98991130  0.50831871     0.00790
H2368       H  0.55922662  0.56079490  0.54116353     0.06680
H2369       H  0.90344539  0.88040113  0.50724764     0.06710
N2370       N  0.51994522  0.94558584  0.90896000    -0.26270
N2371       N  0.89788053  0.95638568  0.93712346    -0.25880
N2372       N  0.59085976  0.56611962  0.96993567     0.01150
C2373       C  0.99718025  0.51425761  0.83217707     0.42550
C2374       C  0.97334880  0.60002571  0.97311892    -0.07130
N2375       N  0.93363449  0.91531995  0.96937473    -0.25880
H2376       H  0.84137435  0.95313939  0.95161325     0.06700
N2377       N  0.53031830  0.53981543  0.84933532    -0.47100
H2378       H  0.99883069  0.63307393  0.97242600     0.06690
C2379       C  0.49814758  0.49664674  0.55137138     0.42390
C2380       C  0.58142906  0.63196991  0.89698678    -0.06630
Co2381     Co  0.53494362  0.56682598  0.97299129     0.73820
N2382       N  0.90923735  0.53849087  0.97329032    -0.46820
C2383       C  0.57303181  0.93359964  0.90846428     0.42650
N2384       N  0.62319472  0.58210590  0.98807776    -0.46810
Co2385     Co  0.93663992  0.97293945  0.97257451     0.73890
C2386       C  0.91765631  0.88197869  0.98728610    -0.07140
C2387       C  0.96606902  0.97839449  0.84946541    -0.06700
N2388       N  0.60036181  0.55619485  0.94580623    -0.26230
N2389       N  0.87555927  0.93007922  0.89493681    -0.46990
H2390       H  0.50180182  0.87999864  0.90873020     0.06660
C2391       C  0.53028715  0.53241773  0.53437305    -0.07110
Cl2392     Cl  0.99899069  0.50607981  0.94164816    -0.50120
C2393       C  0.92720546  0.58123877  0.97256611     0.42420
H2394       H  0.65743797  0.56163014  0.93030112     0.06630
N2395       N  0.96532902  0.97190935  0.53381553    -0.46830
C2396       C  0.92476680  0.57929071  0.65355403     0.42270
N2397       N  0.97137303  0.56153431  0.65538548     0.01160
C2398       C  0.93626076  0.86416327  0.69403771    -0.06720
H2399       H  0.87606658  0.92024585  0.76294993     0.06650
C2400       C  0.53402406  0.54457261  0.78279444    -0.07070
Co2401     Co  0.93190693  0.96754697  0.66242640     0.74180
N2402       N  0.90786229  0.94494668  0.72314065    -0.26250
Co2403     Co  0.96486838  0.94604914  0.72651890     0.74070
C2404       C  0.99848829  0.51534371  0.80103023     0.42370
N2405       N  0.56302488  0.59885371  0.71410098     0.00770
N2406       N  0.98712576  0.98970457  0.75934439     0.00880
N2407       N  0.91417998  0.87759134  0.65247236    -0.47100
H2408       H  0.86968649  0.50903898  0.65750006     0.06630
N2409       N  0.89535405  0.95289824  0.69875811     0.01160
N2410       N  0.52214256  0.94743341  0.72827687     0.00900
C2411       C  0.56855435  0.92894527  0.72916679     0.42510
N2412       N  0.55025228  0.60585081  0.68953542    -0.25710
C2413       C  0.95986436  0.96531844  0.60048202    -0.06630
N2414       N  0.96695972  0.59480778  0.65304578    -0.46810
N2415       N  0.52643976  0.91404153  0.73012620    -0.47040
C2416       C  0.49584686  0.49485788  0.58253205     0.42280
N2417       N  0.93106304  0.91104415  0.66908219     0.01150
N2418       N  0.58453795  0.56354260  0.66069980    -0.25730
N2419       N  0.93466563  0.52506071  0.65744517    -0.26220
N2420       N  0.59673788  0.55515750  0.68499244     0.00790
H2421       H  0.61626945  0.58965116  0.62145198     0.06680
H2422       H  0.62389172  0.99882177  0.72471819     0.06710
N2423       N  0.94357488  0.90358360  0.69361530    -0.26270
N2424       N  0.52421707  0.52596212  0.75748011    -0.25880
N2425       N  0.50636720  0.51960137  0.62442464     0.01150
C2426       C  0.84233854  0.93285998  0.72618797     0.42550
C2427       C  0.55930270  0.64588558  0.68803023    -0.07130
N2428       N  0.55895659  0.98377402  0.72611982    -0.25880
H2429       H  0.56379887  0.57304460  0.78829549     0.06700
N2430       N  0.85612434  0.94524754  0.69957625    -0.47100
H2431       H  0.55300122  0.65998639  0.66993076     0.06690
C2432       C  0.64977541  0.57551296  0.65788428     0.42390
C2433       C  0.90326284  0.53292163  0.65637552    -0.06630
Co2434     Co  0.52827368  0.56289963  0.65718938     0.73820
N2435       N  0.58178503  0.63344002  0.72975529    -0.46820
C2436       C  0.91757451  0.84726933  0.66665301     0.42650
N2437       N  0.52297923  0.52778609  0.59888688    -0.46810
Co2438     Co  0.56129651  0.54146755  0.72115406     0.73890
C2439       C  0.59025266  0.97540079  0.72646273    -0.07140
C2440       C  0.87633404  0.93187611  0.74178557    -0.06700
N2441       N  0.96923290  0.98340519  0.62600494    -0.26230
N2442       N  0.97102600  0.98197720  0.78502773    -0.46990
H2443       H  0.94058493  0.84848898  0.71215215     0.06660
C2444       C  0.61606049  0.57692418  0.64218806    -0.07110
Cl2445     Cl  0.99652995  0.50452540  0.69188065    -0.50120
C2446       C  0.58098045  0.66454326  0.71440480     0.42420
H2447       H  0.93019093  0.93696338  0.59466935     0.06630
N2448       N  0.63563080  0.56235065  0.68428289    -0.46830
C2449       C  0.59516950  0.71510093  0.75165074    -0.20500
C2450       C  0.59950771  0.70907072  0.72350416    -0.07060
C2451       C  0.61956291  0.74504469  0.70516644     0.13800
C2452       C  0.63500374  0.78583541  0.71589458    -0.20550
C2453       C  0.63425801  0.79306387  0.74491347    -0.07070
C2454       C  0.60916063  0.75549622  0.76219506     0.13790
C2455       C  0.59067097  0.75408175  0.79027065    -0.23900
H2456       H  0.57788771  0.68727969  0.76534749     0.15080
H2457       H  0.65040994  0.81291518  0.70159597     0.15110
C2458       C  0.62763530  0.74168163  0.67467928    -0.23850
H2459       H  0.60970832  0.75093833  0.80741681     0.05320
H2460       H  0.55762390  0.72610403  0.79196783     0.08550
H2461       H  0.58684090  0.78120388  0.79283353     0.08550
H2462       H  0.59764160  0.72812100  0.66239355     0.08530
H2463       H  0.64187179  0.72186681  0.67271601     0.08530
H2464       H  0.65018168  0.77340188  0.66510634     0.05310
C2465       C  0.58977638  0.84030055  0.74693816    -0.20500
C2466       C  0.63327605  0.85975365  0.73992655    -0.07060
C2467       C  0.64923924  0.89543777  0.72079956     0.13800
C2468       C  0.62801359  0.91787046  0.71840643    -0.20550
C2469       C  0.58807725  0.90233312  0.73066021    -0.07070
C2470       C  0.56755867  0.86138925  0.74349893     0.13790
C2471       C  0.52332369  0.84045592  0.75539709    -0.23900
H2472       H  0.57389750  0.80991336  0.75765355     0.15080
H2473       H  0.64202199  0.94688264  0.70572535     0.15110
C2474       C  0.68491718  0.90881442  0.70024700    -0.23850
H2475       H  0.51312490  0.80917641  0.76563194     0.05320
H2476       H  0.50010344  0.83470264  0.73831517     0.08550
H2477       H  0.52233835  0.86106671  0.77155451     0.08550
H2478       H  0.69498319  0.88570894  0.69857604     0.08530
H2479       H  0.71253655  0.94068548  0.70552841     0.08530
H2480       H  0.67370385  0.91099845  0.67876095     0.05310
C2481       C  0.72628895  0.84561508  0.73374422    -0.20500
C2482       C  0.70774557  0.86663515  0.74634286    -0.07060
C2483       C  0.73677540  0.91068614  0.75319869     0.13800
C2484       C  0.78034297  0.93080475  0.74684565    -0.20550
C2485       C  0.79682808  0.90943430  0.73365230    -0.07070
C2486       C  0.76966248  0.86635973  0.72713996     0.13790
C2487       C  0.78670101  0.84176852  0.71373788    -0.23900
H2488       H  0.70818075  0.81187911  0.73044333     0.15080
H2489       H  0.80175992  0.96405532  0.75189808     0.15110
C2490       C  0.72453654  0.93907240  0.76686843    -0.23850
H2491       H  0.76133287  0.80806468  0.71014289     0.05320
H2492       H  0.81137021  0.84200681  0.72761498     0.08550
H2493       H  0.80099253  0.85651607  0.69305504     0.08550
H2494       H  0.69027849  0.92508209  0.76907259     0.08530
H2495       H  0.73612781  0.96855306  0.75390898     0.08530
H2496       H  0.73965552  0.94815348  0.78798901     0.05310
C2497       C  0.64431778  0.78544341  0.91766160    -0.20500
C2498       C  0.63528008  0.79700558  0.89102364    -0.07060
C2499       C  0.60093870  0.76298216  0.87537009     0.13800
C2500       C  0.58798100  0.72074025  0.88200639    -0.20550
C2501       C  0.60142550  0.71034301  0.90673779    -0.07070
C2502       C  0.62870156  0.74285948  0.92543041     0.13790
C2503       C  0.64290125  0.73314757  0.95305436    -0.23900
H2504       H  0.66521019  0.81028370  0.93210114     0.15080
H2505       H  0.56375430  0.69514837  0.86928341     0.15110
C2506       C  0.57049186  0.76854124  0.85672661    -0.23850
H2507       H  0.66659668  0.76264936  0.96405146     0.05320
H2508       H  0.65789986  0.71442872  0.94928869     0.08550
H2509       H  0.61528739  0.71487314  0.96722751     0.08550
H2510       H  0.58502368  0.78517368  0.83721719     0.08530
H2511       H  0.55834603  0.78596512  0.86765953     0.08530
H2512       H  0.54212435  0.73758413  0.85057933     0.05310
C2513       C  0.66258746  0.91085764  0.90455956    -0.20500
C2514       C  0.63914433  0.86674749  0.89902377    -0.07060
C2515       C  0.59600945  0.84516044  0.90915993     0.13800
C2516       C  0.57539481  0.86785566  0.91055513    -0.20550
C2517       C  0.59775455  0.91223410  0.90828359    -0.07070
C2518       C  0.64275174  0.93418737  0.90785558     0.13790
C2519       C  0.67040435  0.98191830  0.91014153    -0.23900
H2520       H  0.69652490  0.92797343  0.90635202     0.15080
H2521       H  0.54184343  0.85059822  0.91543387     0.15110
C2522       C  0.57502365  0.80416174  0.92659174    -0.23850
H2523       H  0.70483648  0.99324717  0.90993480     0.05320
H2524       H  0.66388550  0.99210742  0.93019286     0.08550
H2525       H  0.66420311  0.99748470  0.89199408     0.08550
H2526       H  0.59722507  0.80618510  0.94339735     0.08530
H2527       H  0.56289335  0.77525576  0.91420120     0.08530
H2528       H  0.54668706  0.79908471  0.93795834     0.05310
C2529       C  0.78380869  0.93180335  0.88398738    -0.20500
C2530       C  0.79972472  0.90956280  0.89778835    -0.07060
C2531       C  0.77271106  0.86596833  0.90332552     0.13800
C2532       C  0.72934383  0.84629701  0.89657810    -0.20550
C2533       C  0.71012212  0.86928796  0.88690352    -0.07070
C2534       C  0.74041294  0.91239393  0.87720114     0.13790
C2535       C  0.73082423  0.94015382  0.85860711    -0.23900
H2536       H  0.80576251  0.96494422  0.87821237     0.15080
H2537       H  0.71193047  0.81214604  0.89732758     0.15110
C2538       C  0.78969034  0.83996115  0.91614962    -0.23850
H2539       H  0.74660308  0.94545867  0.83800658     0.05320
H2540       H  0.74350297  0.97157803  0.86848789     0.08550
H2541       H  0.69717446  0.92737448  0.85476446     0.08550
H2542       H  0.80440210  0.85283344  0.93699706     0.08530
H2543       H  0.81402646  0.84126260  0.90214527     0.08530
H2544       H  0.76416552  0.80603305  0.91930258     0.05310
C2545       C  0.64063034  0.86328752  0.80165739    -0.20500
C2546       C  0.66015450  0.84433686  0.78778871    -0.07060
C2547       C  0.68020167  0.82812449  0.80561786     0.13800
C2548       C  0.67662447  0.82817098  0.83486509    -0.20550
C2549       C  0.65676841  0.84652379  0.84877228    -0.07070
C2550       C  0.63728698  0.86358158  0.83114297     0.13790
C2551       C  0.61056011  0.88007577  0.84187080    -0.23900
H2552       H  0.62747769  0.87874192  0.78962869     0.15080
H2553       H  0.69032585  0.81351210  0.84749061     0.15110
C2554       C  0.70596277  0.81029961  0.79504870    -0.23850
H2555       H  0.59576453  0.88874271  0.82451752     0.05320
H2556       H  0.62988675  0.90934543  0.85395122     0.08550
H2557       H  0.58382973  0.85520531  0.85443225     0.08550
H2558       H  0.73684361  0.83655939  0.78694213     0.08530
H2559       H  0.68853895  0.78583523  0.77896956     0.08530
H2560       H  0.71408803  0.79457747  0.81210614     0.05310
C2561       C  0.72504936  0.61782222  0.67225143    -0.20500
C2562       C  0.69508199  0.59694023  0.65070846    -0.07060
C2563       C  0.70897484  0.59575906  0.62365491     0.13800
C2564       C  0.75259954  0.61753343  0.61844398    -0.20550
C2565       C  0.78369439  0.64050745  0.63963717    -0.07070
C2566       C  0.76881654  0.63870343  0.66748373     0.13790
C2567       C  0.79740675  0.65763028  0.69302928    -0.23900
H2568       H  0.71428180  0.61787372  0.69329760     0.15080
H2569       H  0.76162024  0.61549661  0.59740737     0.15110
C2570       C  0.67834817  0.57038325  0.60027053    -0.23850
H2571       H  0.78594381  0.63360441  0.71045892     0.05320
H2572       H  0.79649846  0.68550065  0.70016852     0.08550
H2573       H  0.83071999  0.66720622  0.68942493     0.08550
H2574       H  0.66063717  0.58547277  0.59300834     0.08530
H2575       H  0.65586109  0.53721427  0.60765791     0.08530
H2576       H  0.69509110  0.56883058  0.58162671     0.05310
C2577       C  0.89184588  0.73495766  0.65733569    -0.20500
C2578       C  0.85071009  0.71384762  0.64468277    -0.07060
C2579       C  0.82946070  0.73754520  0.64457109     0.13800
C2580       C  0.85282354  0.78116494  0.65110108    -0.20550
C2581       C  0.89558376  0.80206972  0.65906954    -0.07070
C2582       C  0.91526645  0.77859138  0.66249344     0.13790
C2583       C  0.96169925  0.79949678  0.67063210    -0.23900
H2584       H  0.90680791  0.71816852  0.66433812     0.15080
H2585       H  0.83727226  0.79919406  0.65048755     0.15110
C2586       C  0.78263171  0.71951415  0.63808991    -0.23850
H2587       H  0.97294695  0.77697933  0.66975939     0.05320
H2588       H  0.96703034  0.81127894  0.69237464     0.08550
H2589       H  0.98142969  0.82641421  0.65587224     0.08550
H2590       H  0.76332243  0.70395322  0.65709272     0.08530
H2591       H  0.77077231  0.69762318  0.62017907     0.08530
H2592       H  0.77649914  0.74509017  0.63209518     0.05310
C2593       C  0.86279125  0.58554867  0.66155464    -0.20500
C2594       C  0.90423997  0.60465886  0.65170141    -0.07060
C2595       C  0.92281814  0.64482194  0.63827940     0.13800
C2596       C  0.89883183  0.66396682  0.63462477    -0.20550
C2597       C  0.85570154  0.64476521  0.64345205    -0.07070
C2598       C  0.83709099  0.60250687  0.65608510     0.13790
C2599       C  0.79023398  0.57049869  0.66118066    -0.23900
H2600       H  0.84917058  0.55497571  0.67230882     0.15080
H2601       H  0.91315787  0.69365085  0.62265356     0.15110
C2602       C  0.96710019  0.66703461  0.62633512    -0.23850
H2603       H  0.78365558  0.53823394  0.66687866     0.05320
H2604       H  0.77129946  0.56529501  0.64174897     0.08550
H2605       H  0.77848613  0.57897716  0.67940441     0.08550
H2606       H  0.96910718  0.64653850  0.61055654     0.08530
H2607       H  0.99062854  0.67419976  0.64351284     0.08530
H2608       H  0.97595328  0.69768704  0.61566039     0.05310
C2609       C  0.71514019  0.57999618  0.99726977    -0.20500
C2610       C  0.69956548  0.60339772  0.98469968    -0.07060
C2611       C  0.72731679  0.64708183  0.97950726     0.13800
C2612       C  0.77073739  0.66617656  0.98634495    -0.20550
C2613       C  0.78882331  0.64271479  0.99722530    -0.07070
C2614       C  0.75838673  0.59855727  0.00423061     0.13790
C2615       C  0.76809557  0.56840022  0.51932633    -0.23900
H2616       H  0.69303653  0.54638496  0.00169066     0.15080
H2617       H  0.78967848  0.70023639  0.98376304     0.15110
C2618       C  0.71101088  0.67368967  0.96675127    -0.23850
H2619       H  0.75139306  0.55835849  0.53984337     0.05320
H2620       H  0.80160010  0.58208063  0.52328727     0.08550
H2621       H  0.75726042  0.53977464  0.00638806     0.08550
H2622       H  0.68657685  0.67240208  0.98065672     0.08530
H2623       H  0.69654575  0.66128179  0.94577563     0.08530
H2624       H  0.73682002  0.70756998  0.96393429     0.05310
C2625       C  0.88519431  0.74842304  0.51495463    -0.20500
C2626       C  0.86207188  0.71538495  0.99520762    -0.07060
C2627       C  0.86398662  0.72897783  0.96645575     0.13800
C2628       C  0.88306528  0.77264113  0.95979154    -0.20550
C2629       C  0.90156690  0.80390390  0.98048613    -0.07070
C2630       C  0.90426459  0.79162848  0.00824083     0.13790
C2631       C  0.92950027  0.82369888  0.53080278    -0.23900
H2632       H  0.89106044  0.74122780  0.53599474     0.15080
H2633       H  0.88270274  0.78228045  0.93808525     0.15110
C2634       C  0.84525331  0.69919419  0.94196749    -0.23850
H2635       H  0.93384758  0.80853782  0.55000021     0.05320
H2636       H  0.91256711  0.83933156  0.53743700     0.08550
H2637       H  0.96167768  0.84779838  0.02297056     0.08550
H2638       H  0.82176074  0.70448708  0.93067602     0.08530
H2639       H  0.82855621  0.66527873  0.94798506     0.08530
H2640       H  0.87100250  0.70583763  0.92718155     0.05310
C2641       C  0.84203053  0.61041522  0.97555207    -0.20500
C2642       C  0.86350560  0.64835785  0.99134626    -0.07060
C2643       C  0.90895100  0.66793789  0.99399559     0.13800
C2644       C  0.92797009  0.64541431  0.98645084    -0.20550
C2645       C  0.90459255  0.60439867  0.97577637    -0.07070
C2646       C  0.86131712  0.58747068  0.96883394     0.13790
C2647       C  0.83518131  0.54542911  0.95428886    -0.23900
H2648       H  0.80932561  0.59711515  0.46920746     0.15080
H2649       H  0.96163325  0.65957325  0.99045066     0.15110
C2650       C  0.93913402  0.71137855  0.00607446    -0.23850
H2651       H  0.80262910  0.53818594  0.44897814     0.05320
H2652       H  0.83168766  0.51926254  0.46825493     0.08550
H2653       H  0.85082343  0.54612953  0.93441404     0.08550
H2654       H  0.92979211  0.71325272  0.02765049     0.08530
H2655       H  0.94116487  0.73654332  0.99180440     0.08530
H2656       H  0.97231756  0.71869221  0.00801770     0.05310
C2657       C  0.84193046  0.63950347  0.58537604    -0.20500
C2658       C  0.83664577  0.67051913  0.59865454    -0.06880
C2659       C  0.82874505  0.69631152  0.57964747     0.13800
C2660       C  0.81940965  0.68432380  0.55146366    -0.20550
C2661       C  0.83754960  0.66370010  0.53820043    -0.07070
C2662       C  0.85124707  0.64185007  0.55674831     0.13790
C2663       C  0.87677593  0.62190758  0.54941674    -0.23900
H2664       H  0.84185408  0.61437941  0.59748423     0.15080
H2665       H  0.80744137  0.70036598  0.53844289     0.15110
C2666       C  0.84339961  0.74241958  0.58413271    -0.23850
H2667       H  0.87825892  0.60260828  0.56721054     0.05320
H2668       H  0.91034952  0.64713428  0.54589998     0.08550
H2669       H  0.86430793  0.60003064  0.53159784     0.08550
H2670       H  0.87145448  0.75810275  0.59830461     0.08530
H2671       H  0.81691755  0.74623720  0.58994684     0.08530
H2672       H  0.85509091  0.76141092  0.56433685     0.05310
loop_ 
_geom_bond_atom_site_label_1 
_geom_bond_atom_site_label_2 
_geom_bond_distance 
_geom_bond_site_symmetry_2 
_ccdc_geom_bond_type 
C1          C323   1.573       .  S
C1          C609   1.598   1_554  S
C1          C622   1.587   1_554  S
C1          C638   1.577   1_554  S
C2          C227   1.548       .  S
C2          C240   1.595       .  S
C2          C259   1.601       .  S
C2          C320   1.595       .  S
C3          C160   1.574       .  S
C3          C176   1.596       .  S
C3          C195   1.607       .  S
C3          C211   1.574       .  S
C4          C115   1.586       .  S
C4          C128   1.584       .  S
C4          C144   1.583       .  S
C4          C208   1.581       .  S
C5           N23   1.341       .  A
C5           C42   1.462       .  S
C5          C163   1.468       .  S
N6           N23   1.319       .  A
N6           N28   1.321       .  A
N6          Co43   2.068       .  S
C7           N32   1.339       .  A
C7           C45   1.467       .  S
C7           H52   1.080       .  S
H8           C49   1.081       .  S
C9           N33   1.336       .  A
C9           C13   1.450       .  S
C9           H38   1.082       .  S
Co10         N28   2.084       .  S
Co10         N18   2.105       .  S
Co10         N50   2.083       .  S
Co10        N694   2.077   1_545  S
Co10      Cl1390   2.456   1_455  S
N11          C49   1.341       .  A
N11        N2022   1.321       .  A
N11         Co12   2.088       .  S
Co12         N15   2.085       .  S
Co12         N19   2.078       .  S
Co12       N1368   2.085       .  S
Co12       Cl722   2.447       .  S
C13          N51   1.350       .  A
C13         C192   1.464       .  S
N14          N21   1.318       .  A
N14          N44   1.328       .  A
N14        Co715   2.086   1_545  S
N15          N33   1.320       .  A
N15          N51   1.325       .  A
N16          C45   1.349       .  A
N16          N26   1.324       .  A
H17          C42   1.082       .  S
N18          N39   1.330       .  A
N18        N2015   1.321   1_445  A
N19          N37   1.320       .  A
N19          N24   1.323       .  A
C20          N24   1.347       .  A
C20          C48   1.465       .  S
C20         C291   1.478       .  S
N21          C36   1.336       .  A
N21       Co1379   2.083       .  S
C22          N50   1.337       .  A
C22          C25   1.451       .  S
C22          H56   1.082       .  S
C25          N46   1.352       .  A
C25         C272   1.470       .  S
N26          N32   1.318       .  A
N26        Co678   2.077       .  S
N27          C53   1.343       .  A
N27        N2033   1.320   1_445  A
N27        Co377   2.095   1_554  S
N28          C42   1.343       .  A
N29          N57   1.330       .  A
N29        N2031   1.320       .  A
N29        Co381   2.099   1_554  S
H30          C53   1.081       .  S
H31         C382   1.079   1_554  S
N32       Co1348   2.085   1_455  S
N33         Co47   2.072       .  S
N34          N46   1.327       .  A
N34          N50   1.322       .  A
N34         Co43   2.089       .  S
C35        N1375   1.355       .  A
C35          C66   1.481       .  S
C35         C717   1.459   1_545  S
C36          C55   1.464       .  S
C36          H40   1.080       .  S
N37          C48   1.338       .  A
N37         Co47   2.083       .  S
N39        C1371   1.355   1_455  A
C41        N2061   1.353       .  A
C41          C53   1.463   1_665  S
C41          C78   1.483       .  S
Co43       N1357   2.083   1_455  S
Co43        N361   2.095       .  S
Co43      Cl1390   2.444   1_455  S
N44          C55   1.353       .  A
C45         C179   1.490       .  S
Co47        N682   2.086       .  S
Co47        N363   2.099       .  S
Co47       Cl722   2.458       .  S
C48         H365   1.079       .  S
C49         C703   1.459       .  S
Cl54      Co1346   2.456       .  S
Cl54       Co680   2.447   1_545  S
Cl54      Co1379   2.444       .  S
Cl54       Co715   2.458   1_545  S
C55         C307   1.490       .  S
N57        C2045   1.353       .  A
C58          N76   1.349       .  A
C58          C95   1.464       .  S
C58         C256   1.485       .  S
N59          N76   1.325       .  A
N59          N81   1.318       .  A
N59       Co1432   2.077       .  S
C60          N85   1.334       .  A
C60          C98   1.453       .  S
C60         H105   1.081       .  S
H61         C102   1.081       .  S
C62          N86   1.347       .  A
C62        C1402   1.465   1_455  S
C62          H91   1.081       .  S
Co63         N71   2.092       .  S
Co63        N103   2.107       .  S
Co63         N79   2.088       .  S
Co63        N749   2.081       .  S
Co63       Cl775   2.460       .  S
N64         C102   1.343       .  A
N64          N71   1.321       .  A
N64         Co65   2.089       .  S
Co65         N68   2.096       .  S
Co65         N85   2.075       .  S
Co65       N1408   2.091       .  S
Co65       Cl775   2.445       .  S
C66         N772   1.352   1_545  A
C66        C1398   1.465       .  S
N67          N74   1.320       .  A
N67          N97   1.328       .  A
N67        Co100   2.106       .  S
N68         N104   1.326       .  A
N68        N2090   1.321       .  A
N69          C98   1.353       .  A
N69          N79   1.326       .  A
H70          C95   1.081       .  S
N71          N92   1.324       .  A
N72          N90   1.318       .  A
N72          N77   1.325       .  A
N72       Co1401   2.091   1_455  S
C73          N77   1.351       .  A
C73         C101   1.466       .  S
C73         C131   1.495       .  S
N74          C89   1.334       .  A
N74         Co96   2.064       .  S
C75         N103   1.349       .  A
C75        C2082   1.468       .  S
C75         H109   1.081       .  S
C78          N99   1.350   1_665  A
C78        C2079   1.468       .  S
N79          N85   1.321       .  A
N80         C106   1.338       .  A
N80          N82   1.319       .  A
N80         Co96   2.071       .  S
N81          C95   1.337       .  A
N81        Co731   2.081   1_545  S
N82         N110   1.318       .  A
N82        Co100   2.068       .  S
H83         C106   1.079       .  S
H84         C101   1.081       .  S
N86        N2072   1.321   1_445  A
N86        Co100   2.099       .  S
N87          N99   1.326       .  A
N87        N2107   1.320   1_445  A
N87         Co96   2.087       .  S
C88          N92   1.349       .  A
C88         C102   1.462       .  S
C88         C147   1.476       .  S
C89         C108   1.452       .  S
C89          H93   1.078       .  S
N90         C101   1.346       .  A
N90        Co768   2.095       .  S
C94         N110   1.346       .  A
C94         C106   1.463       .  S
C94         C224   1.470       .  S
Co96       N1395   2.077   1_455  S
Co96      Cl1443   2.444   1_455  S
N97         C108   1.358       .  A
C98         C243   1.473       .  S
Co100       N758   2.095   1_545  S
Co100     Cl1443   2.459   1_455  S
N103       N2091   1.320       .  A
N104        C734   1.352       .  A
Cl107      Co731   2.460   1_545  S
Cl107      Co733   2.445   1_545  S
Cl107     Co1432   2.444       .  S
Cl107     Co1436   2.459       .  S
C108        C112   1.484       .  S
C111        H118   1.086       .  S
C111        C112   1.388       .  A
C111        C116   1.401       .  A
C112        C113   1.415       .  A
C113        C120   1.507       .  S
C113        C114   1.407       .  A
C114        H119   1.080       .  S
C114        C115   1.415       .  A
C115        C116   1.441       .  A
C116        C117   1.499       .  S
C117        H121   1.109       .  S
C117        H122   1.112       .  S
C117        H123   1.094       .  S
C120        H124   1.106       .  S
C120        H125   1.111       .  S
C120        H126   1.111       .  S
C127        H134   1.074       .  S
C127        C128   1.416       .  A
C127        C132   1.404       .  A
C128        C129   1.433       .  A
C129        C136   1.510       .  S
C129        C130   1.412       .  A
C130        H135   1.084       .  S
C130        C131   1.405       .  A
C131        C132   1.414       .  A
C132        C133   1.508       .  S
C133        H137   1.111       .  S
C133        H138   1.108       .  S
C133        H139   1.110       .  S
C136        H140   1.102       .  S
C136        H141   1.109       .  S
C136        H142   1.111       .  S
C143        H150   1.074       .  S
C143        C144   1.427       .  A
C143        C148   1.403       .  A
C144        C145   1.442       .  A
C145        C152   1.509       .  S
C145        C146   1.408       .  A
C146        H151   1.085       .  S
C146        C147   1.392       .  A
C147        C148   1.402       .  A
C148        C149   1.510       .  S
C149        H153   1.110       .  S
C149        H154   1.110       .  S
C149        H155   1.110       .  S
C152        H156   1.093       .  S
C152        H157   1.111       .  S
C152        H158   1.109       .  S
C159        H166   1.083       .  S
C159        C160   1.414       .  A
C159        C164   1.403       .  A
C160        C161   1.440       .  A
C161        C168   1.512       .  S
C161        C162   1.399       .  A
C162        H167   1.085       .  S
C162        C163   1.389       .  A
C163        C164   1.411       .  A
C164        C165   1.507       .  S
C165        H169   1.110       .  S
C165        H170   1.111       .  S
C165        H171   1.109       .  S
C168        H172   1.081       .  S
C168        H173   1.104       .  S
C168        H174   1.111       .  S
C175        H182   1.069       .  S
C175        C176   1.415       .  A
C175        C180   1.409       .  A
C176        C177   1.443       .  A
C177        C184   1.518       .  S
C177        C178   1.403       .  A
C178        H183   1.081       .  S
C178        C179   1.396       .  A
C179        C180   1.415       .  A
C180        C181   1.508       .  S
C181        H185   1.111       .  S
C181        H186   1.110       .  S
C181        H187   1.110       .  S
C184        H188   1.108       .  S
C184        H189   1.098       .  S
C184        H190   1.112       .  S
C191        H198   1.085       .  S
C191        C192   1.385       .  A
C191        C196   1.403       .  A
C192        C193   1.398       .  A
C193        C200   1.509       .  S
C193        C194   1.401       .  A
C194        H199   1.073       .  S
C194        C195   1.428       .  A
C195        C196   1.451       .  A
C196        C197   1.510       .  S
C197        H201   1.109       .  S
C197        H202   1.111       .  S
C197        H203   1.086       .  S
C200        H204   1.110       .  S
C200        H205   1.110       .  S
C200        H206   1.111       .  S
C207        H214   1.074       .  S
C207        C208   1.422       .  A
C207        C212   1.410       .  A
C208        C209   1.429       .  A
C209        C216   1.514       .  S
C209        C210   1.399       .  A
C210        H215   1.081       .  S
C210        C211   1.416       .  A
C211        C212   1.429       .  A
C212        C213   1.510       .  S
C213        H217   1.111       .  S
C213        H218   1.100       .  S
C213        H219   1.103       .  S
C216        H220   1.106       .  S
C216        H221   1.104       .  S
C216        H222   1.111       .  S
C223        H230   1.085       .  S
C223        C224   1.401       .  A
C223        C228   1.398       .  A
C224        C225   1.405       .  A
C225        C232   1.510       .  S
C225        C226   1.395       .  A
C226        H231   1.077       .  S
C226        C227   1.423       .  A
C227        C228   1.430       .  A
C228        C229   1.514       .  S
C229        H233   1.111       .  S
C229        H234   1.110       .  S
C229        H235   1.103       .  S
C232        H236   1.106       .  S
C232        H237   1.110       .  S
C232        H238   1.111       .  S
C239        H246   1.070       .  S
C239        C240   1.421       .  A
C239        C244   1.397       .  A
C240        C241   1.452       .  A
C241        C248   1.519       .  S
C241        C242   1.410       .  A
C242        H247   1.085       .  S
C242        C243   1.393       .  A
C243        C244   1.401       .  A
C244        C245   1.511       .  S
C245        H249   1.111       .  S
C245        H250   1.105       .  S
C245        H251   1.111       .  S
C248        H252   1.106       .  S
C248        H253   1.104       .  S
C248        H254   1.111       .  S
C255        H262   1.083       .  S
C255        C256   1.392       .  A
C255        C260   1.404       .  A
C256        C257   1.406       .  A
C257        C264   1.508       .  S
C257        C258   1.402       .  A
C258        H263   1.084       .  S
C258        C259   1.429       .  A
C259        C260   1.452       .  A
C260        C261   1.517       .  S
C261        H265   1.111       .  S
C261        H266   1.104       .  S
C261        H267   1.100       .  S
C264        H268   1.111       .  S
C264        H269   1.110       .  S
C264        H270   1.111       .  S
C271        H278   1.085       .  S
C271        C272   1.385       .  A
C271        C276   1.403       .  A
C272        C273   1.401       .  A
C273        C280   1.509       .  S
C273        C274   1.406       .  A
C274        H279   1.075       .  S
C274        C275   1.428       .  A
C275        C335   1.598       .  S
C275        C276   1.446       .  A
C276        C611   1.501       .  S
C277        C610   1.501       .  S
C277        H281   1.111       .  S
C277        H282   1.077       .  S
C277        H617   1.111       .  S
C280        H284   1.110       .  S
C280        H285   1.110       .  S
C280        H286   1.110       .  S
H283        C611   1.111       .  S
C287        H294   1.075       .  S
C287        C622   1.424   1_554  A
C287        C626   1.394       .  A
C288        C335   1.587       .  S
C288        C289   1.433       .  A
C288        C621   1.424       .  A
C289        C296   1.509       .  S
C289        C290   1.409       .  A
C290        H295   1.085       .  S
C290        C291   1.403       .  A
C291        C292   1.402       .  A
C292        C627   1.511       .  S
C292        C621   1.394       .  A
C293        C626   1.511       .  S
C293        H297   1.111       .  S
C293        H298   1.107       .  S
C293        H633   1.110       .  S
C296        H300   1.111       .  S
C296        H301   1.099       .  S
C296        H302   1.110       .  S
H299        C627   1.110       .  S
C303        H644   1.077       .  S
C303        C304   1.420       .  A
C303        C308   1.411       .  A
C304        C335   1.577       .  S
C304        C305   1.441       .  A
C305        C312   1.512       .  S
C305        C306   1.400       .  A
C306        H311   1.080       .  S
C306        C307   1.394       .  A
C307        C308   1.412       .  A
C308        C309   1.507       .  S
C309        H315   1.110       .  S
C309        H647   1.111       .  S
C309        H648   1.109       .  S
H310        C637   1.077       .  S
C312        H316   1.104       .  S
C312        H317   1.107       .  S
C312        H318   1.110       .  S
H313        C643   1.111       .  S
H314        C643   1.109       .  S
C319        H326   1.078       .  S
C319        C320   1.425       .  A
C319        C324   1.400       .  A
C320        C321   1.431       .  A
C321        C328   1.511       .  S
C321        C322   1.400       .  A
C322        H327   1.084       .  S
C322        C323   1.418       .  A
C323        C324   1.435       .  A
C324        C325   1.522       .  S
C325        H329   1.111       .  S
C325        H330   1.104       .  S
C325        H331   1.100       .  S
C328        H332   1.106       .  S
C328        H333   1.102       .  S
C328        H334   1.108       .  S
C335        C657   1.573       .  S
C336        C561   1.548       .  S
C336        C574   1.595       .  S
C336        C593   1.601       .  S
C336        C654   1.595       .  S
C337        C494   1.574       .  S
C337        C510   1.596       .  S
C337        C529   1.607       .  S
C337        C545   1.574       .  S
C338        C449   1.586       .  S
C338        C462   1.584       .  S
C338        C478   1.583       .  S
C338        C542   1.581       .  S
C339        N357   1.341       .  A
C339        C376   1.462       .  S
C339        C497   1.468       .  S
N340        N357   1.319       .  A
N340        N362   1.321       .  A
N340       Co377   2.068       .  S
C341        N366   1.339       .  A
C341        C379   1.467       .  S
C341        H386   1.080       .  S
H342        C383   1.081       .  S
C343        N367   1.336       .  A
C343        C347   1.450       .  S
C343        H372   1.082       .  S
Co344       N362   2.084       .  S
Co344       N352   2.105       .  S
Co344       N384   2.083       .  S
Co344      N1028   2.077   1_545  S
Co344     Cl1724   2.456   1_455  S
N345        C383   1.341       .  A
N345       N2356   1.321       .  A
N345       Co346   2.088       .  S
Co346       N349   2.085       .  S
Co346      N1702   2.085       .  S
Co346       N353   2.078       .  S
Co346     Cl1056   2.447       .  S
C347        N385   1.350       .  A
C347        C526   1.464       .  S
N348        N355   1.318       .  A
N348        N378   1.328       .  A
N348      Co1049   2.086   1_545  S
N349        N367   1.320       .  A
N349        N385   1.325       .  A
N350        C379   1.349       .  A
N350        N360   1.324       .  A
H351        C376   1.082       .  S
N352       N2349   1.321   1_445  A
N352        N373   1.330       .  A
N353        N371   1.320       .  A
N353        N358   1.323       .  A
C354        N358   1.347       .  A
C354        C382   1.465       .  S
C354        C625   1.478       .  S
N355        C370   1.336       .  A
N355      Co1713   2.083       .  S
C356        N384   1.337       .  A
C356        C359   1.451       .  S
C356        H390   1.082       .  S
C359        N380   1.352       .  A
C359        C606   1.470       .  S
N360        N366   1.318       .  A
N360      Co1012   2.077       .  S
N361        C387   1.343       .  A
N361       N2367   1.320   1_445  A
N362        C376   1.343       .  A
N363       N2365   1.320       .  A
N363        N391   1.330       .  A
H364        C387   1.081       .  S
N366      Co1682   2.085   1_455  S
N367       Co381   2.072       .  S
N368        N380   1.327       .  A
N368        N384   1.322       .  A
N368       Co377   2.089       .  S
C369       N1709   1.355       .  A
C369       C1051   1.459   1_545  S
C369        C400   1.481       .  S
C370        C389   1.464       .  S
C370        H374   1.080       .  S
N371        C382   1.338       .  A
N371       Co381   2.083       .  S
N373       C1705   1.355   1_455  A
C375       N2395   1.353       .  A
C375        C387   1.463   1_665  S
C375        C412   1.483       .  S
Co377      N1691   2.083   1_455  S
Co377     Cl1724   2.444   1_455  S
N378        C389   1.353       .  A
C379        C513   1.490       .  S
Co381      N1016   2.086       .  S
Co381     Cl1056   2.458       .  S
C383       C1037   1.459       .  S
Cl388     Co1680   2.456       .  S
Cl388     Co1014   2.447   1_545  S
Cl388     Co1713   2.444       .  S
Cl388     Co1049   2.458   1_545  S
C389        C641   1.490       .  S
N391       C2379   1.353       .  A
C392        N410   1.349       .  A
C392        C429   1.464       .  S
C392        C590   1.485       .  S
N393        N410   1.325       .  A
N393        N415   1.318       .  A
N393      Co1766   2.077       .  S
C394        N419   1.334       .  A
C394        C432   1.453       .  S
C394        H439   1.081       .  S
H395        C436   1.081       .  S
C396        N420   1.347       .  A
C396       C1736   1.465   1_455  S
C396        H425   1.081       .  S
Co397      N1083   2.081       .  S
Co397       N405   2.092       .  S
Co397       N437   2.107       .  S
Co397       N413   2.088       .  S
Co397     Cl1109   2.460       .  S
N398        C436   1.343       .  A
N398        N405   1.321       .  A
N398       Co399   2.089       .  S
Co399       N402   2.096       .  S
Co399       N419   2.075       .  S
Co399      N1742   2.091       .  S
Co399     Cl1109   2.445       .  S
C400       N1106   1.352   1_545  A
C400       C1732   1.465       .  S
N401        N408   1.320       .  A
N401        N431   1.328       .  A
N401       Co434   2.106       .  S
N402       N2424   1.321       .  A
N402        N438   1.326       .  A
N403        C432   1.353       .  A
N403        N413   1.326       .  A
H404        C429   1.081       .  S
N405        N426   1.324       .  A
N406        N424   1.318       .  A
N406        N411   1.325       .  A
N406      Co1735   2.091   1_455  S
C407        N411   1.351       .  A
C407        C435   1.466       .  S
C407        C465   1.495       .  S
N408        C423   1.334       .  A
N408       Co430   2.064       .  S
C409        N437   1.349       .  A
C409       C2416   1.468       .  S
C409        H443   1.081       .  S
C412        N433   1.350   1_665  A
C412       C2413   1.468       .  S
N413        N419   1.321       .  A
N414        C440   1.338       .  A
N414        N416   1.319       .  A
N414       Co430   2.071       .  S
N415        C429   1.337       .  A
N415      Co1065   2.081   1_545  S
N416        N444   1.318       .  A
N416       Co434   2.068       .  S
H417        C440   1.079       .  S
H418        C435   1.081       .  S
N420       N2406   1.321   1_445  A
N420       Co434   2.099       .  S
N421        N433   1.326       .  A
N421       N2441   1.320   1_445  A
N421       Co430   2.087       .  S
C422        N426   1.349       .  A
C422        C436   1.462       .  S
C422        C481   1.476       .  S
C423        C442   1.452       .  S
C423        H427   1.078       .  S
N424        C435   1.346       .  A
N424      Co1102   2.095       .  S
C428        N444   1.346       .  A
C428        C440   1.463       .  S
C428        C558   1.470       .  S
Co430      N1729   2.077   1_455  S
Co430     Cl1777   2.444   1_455  S
N431        C442   1.358       .  A
C432        C577   1.473       .  S
Co434      N1092   2.095   1_545  S
Co434     Cl1777   2.459   1_455  S
N437       N2425   1.320       .  A
N438       C1068   1.352       .  A
Cl441     Co1065   2.460   1_545  S
Cl441     Co1067   2.445   1_545  S
Cl441     Co1766   2.444       .  S
Cl441     Co1770   2.459       .  S
C442        C446   1.484       .  S
C445        H452   1.086       .  S
C445        C446   1.388       .  A
C445        C450   1.401       .  A
C446        C447   1.415       .  A
C447        C454   1.507       .  S
C447        C448   1.407       .  A
C448        H453   1.080       .  S
C448        C449   1.415       .  A
C449        C450   1.441       .  A
C450        C451   1.499       .  S
C451        H455   1.109       .  S
C451        H456   1.112       .  S
C451        H457   1.094       .  S
C454        H458   1.106       .  S
C454        H459   1.111       .  S
C454        H460   1.111       .  S
C461        H468   1.074       .  S
C461        C462   1.416       .  A
C461        C466   1.404       .  A
C462        C463   1.433       .  A
C463        C470   1.510       .  S
C463        C464   1.412       .  A
C464        H469   1.084       .  S
C464        C465   1.405       .  A
C465        C466   1.414       .  A
C466        C467   1.508       .  S
C467        H471   1.111       .  S
C467        H472   1.108       .  S
C467        H473   1.110       .  S
C470        H474   1.102       .  S
C470        H475   1.109       .  S
C470        H476   1.111       .  S
C477        H484   1.074       .  S
C477        C478   1.427       .  A
C477        C482   1.403       .  A
C478        C479   1.442       .  A
C479        C486   1.509       .  S
C479        C480   1.408       .  A
C480        H485   1.085       .  S
C480        C481   1.392       .  A
C481        C482   1.402       .  A
C482        C483   1.510       .  S
C483        H487   1.110       .  S
C483        H488   1.110       .  S
C483        H489   1.110       .  S
C486        H490   1.093       .  S
C486        H491   1.111       .  S
C486        H492   1.109       .  S
C493        H500   1.083       .  S
C493        C494   1.414       .  A
C493        C498   1.403       .  A
C494        C495   1.440       .  A
C495        C502   1.512       .  S
C495        C496   1.399       .  A
C496        H501   1.085       .  S
C496        C497   1.389       .  A
C497        C498   1.411       .  A
C498        C499   1.507       .  S
C499        H503   1.110       .  S
C499        H504   1.111       .  S
C499        H505   1.109       .  S
C502        H506   1.081       .  S
C502        H507   1.104       .  S
C502        H508   1.111       .  S
C509        H516   1.069       .  S
C509        C510   1.415       .  A
C509        C514   1.409       .  A
C510        C511   1.443       .  A
C511        C518   1.518       .  S
C511        C512   1.403       .  A
C512        H517   1.081       .  S
C512        C513   1.396       .  A
C513        C514   1.415       .  A
C514        C515   1.508       .  S
C515        H519   1.111       .  S
C515        H520   1.110       .  S
C515        H521   1.110       .  S
C518        H522   1.108       .  S
C518        H523   1.098       .  S
C518        H524   1.112       .  S
C525        H532   1.085       .  S
C525        C526   1.385       .  A
C525        C530   1.403       .  A
C526        C527   1.398       .  A
C527        C534   1.509       .  S
C527        C528   1.401       .  A
C528        H533   1.073       .  S
C528        C529   1.428       .  A
C529        C530   1.451       .  A
C530        C531   1.510       .  S
C531        H535   1.109       .  S
C531        H536   1.111       .  S
C531        H537   1.086       .  S
C534        H538   1.110       .  S
C534        H539   1.110       .  S
C534        H540   1.111       .  S
C541        H548   1.074       .  S
C541        C542   1.422       .  A
C541        C546   1.410       .  A
C542        C543   1.429       .  A
C543        C550   1.514       .  S
C543        C544   1.399       .  A
C544        H549   1.081       .  S
C544        C545   1.416       .  A
C545        C546   1.429       .  A
C546        C547   1.510       .  S
C547        H551   1.111       .  S
C547        H552   1.100       .  S
C547        H553   1.103       .  S
C550        H554   1.106       .  S
C550        H555   1.104       .  S
C550        H556   1.111       .  S
C557        H564   1.085       .  S
C557        C558   1.401       .  A
C557        C562   1.398       .  A
C558        C559   1.405       .  A
C559        C566   1.510       .  S
C559        C560   1.395       .  A
C560        H565   1.077       .  S
C560        C561   1.423       .  A
C561        C562   1.430       .  A
C562        C563   1.514       .  S
C563        H567   1.111       .  S
C563        H568   1.110       .  S
C563        H569   1.103       .  S
C566        H570   1.106       .  S
C566        H571   1.110       .  S
C566        H572   1.111       .  S
C573        H580   1.070       .  S
C573        C574   1.421       .  A
C573        C578   1.397       .  A
C574        C575   1.452       .  A
C575        C582   1.519       .  S
C575        C576   1.410       .  A
C576        H581   1.085       .  S
C576        C577   1.393       .  A
C577        C578   1.401       .  A
C578        C579   1.511       .  S
C579        H583   1.111       .  S
C579        H584   1.105       .  S
C579        H585   1.111       .  S
C582        H586   1.106       .  S
C582        H587   1.104       .  S
C582        H588   1.111       .  S
C589        H596   1.083       .  S
C589        C590   1.392       .  A
C589        C594   1.404       .  A
C590        C591   1.406       .  A
C591        C598   1.508       .  S
C591        C592   1.402       .  A
C592        H597   1.084       .  S
C592        C593   1.429       .  A
C593        C594   1.452       .  A
C594        C595   1.517       .  S
C595        H599   1.111       .  S
C595        H600   1.104       .  S
C595        H601   1.100       .  S
C598        H602   1.111       .  S
C598        H603   1.110       .  S
C598        H604   1.111       .  S
C605        H612   1.085   1_556  S
C605        C606   1.385       .  A
C605        C610   1.403   1_556  A
C606        C607   1.401       .  A
C607        C614   1.509       .  S
C607        C608   1.406       .  A
C608        H613   1.075       .  S
C608        C609   1.428       .  A
C609        C610   1.446   1_556  A
C611        H615   1.111       .  S
C611        H616   1.077       .  S
C614        H618   1.110       .  S
C614        H619   1.110       .  S
C614        H620   1.110       .  S
C621        H628   1.075       .  S
C622        C623   1.433       .  A
C623        C630   1.509       .  S
C623        C624   1.409       .  A
C624        H629   1.085       .  S
C624        C625   1.403       .  A
C625        C626   1.402   1_556  A
C627        H631   1.111       .  S
C627        H632   1.107       .  S
C630        H634   1.111       .  S
C630        H635   1.099       .  S
C630        H636   1.110       .  S
C637        C638   1.420       .  A
C637        C642   1.411       .  A
C638        C639   1.441       .  A
C639        C646   1.512   1_556  S
C639        C640   1.400       .  A
C640        H645   1.080       .  S
C640        C641   1.394       .  A
C641        C642   1.412       .  A
C642        C643   1.507       .  S
C643        H649   1.110       .  S
C646        H650   1.104       .  S
C646        H651   1.107   1_554  S
C646        H652   1.110       .  S
C653        H660   1.078       .  S
C653        C654   1.425       .  A
C653        C658   1.400       .  A
C654        C655   1.431       .  A
C655        C662   1.511       .  S
C655        C656   1.400       .  A
C656        H661   1.084       .  S
C656        C657   1.418       .  A
C657        C658   1.435       .  A
C658        C659   1.522       .  S
C659        H663   1.111       .  S
C659        H664   1.104       .  S
C659        H665   1.100       .  S
C662        H666   1.106       .  S
C662        H667   1.102       .  S
C662        H668   1.108       .  S
C669       C1277   1.598   1_554  S
C669       C1290   1.587   1_554  S
C669       C1306   1.577   1_554  S
C669        C991   1.573       .  S
C670        C895   1.548       .  S
C670        C908   1.595       .  S
C670        C927   1.601       .  S
C670        C988   1.595       .  S
C671        C828   1.574       .  S
C671        C844   1.596       .  S
C671        C863   1.607       .  S
C671        C879   1.574       .  S
C672        C783   1.586       .  S
C672        C796   1.584       .  S
C672        C812   1.583       .  S
C672        C876   1.581       .  S
C673        N691   1.341       .  A
C673        C710   1.462       .  S
C673        C831   1.468       .  S
N674        N691   1.319       .  A
N674        N696   1.321       .  A
N674       Co711   2.068       .  S
C675        N700   1.339       .  A
C675        C713   1.467       .  S
C675        H720   1.080       .  S
H676        C717   1.081       .  S
C677        N701   1.336       .  A
C677        C681   1.450       .  S
C677        H706   1.082       .  S
Co678       N696   2.084       .  S
Co678       N686   2.105       .  S
Co678       N718   2.083       .  S
Co678     Cl2058   2.456   1_455  S
N679        C717   1.341       .  A
N679       N1354   1.321   1_565  A
N679       Co680   2.088       .  S
Co680       N683   2.085       .  S
Co680      N2036   2.085       .  S
Co680       N687   2.078       .  S
C681        N719   1.350       .  A
C681        C860   1.464       .  S
N682        N689   1.318       .  A
N682        N712   1.328       .  A
N683        N701   1.320       .  A
N683        N719   1.325       .  A
N684        C713   1.349       .  A
N684        N694   1.324       .  A
H685        C710   1.082       .  S
N686       N1347   1.321   1_455  A
N686        N707   1.330       .  A
N687        N705   1.320       .  A
N687        N692   1.323       .  A
C688        N692   1.347       .  A
C688        C716   1.465       .  S
C688        C959   1.478       .  S
N689        C704   1.336       .  A
N689      Co2047   2.083       .  S
C690        N718   1.337       .  A
C690        C693   1.451       .  S
C690        H724   1.082       .  S
C693        N714   1.352       .  A
C693        C940   1.470       .  S
N694        N700   1.318       .  A
N695        C721   1.343       .  A
N695       N1365   1.320   1_455  A
N695      Co1045   2.095   1_554  S
N696        C710   1.343       .  A
N697       N1363   1.320   1_565  A
N697        N725   1.330       .  A
N697      Co1049   2.099   1_554  S
H698        C721   1.081       .  S
H699       C1050   1.079   1_554  S
N700      Co2016   2.085   1_455  S
N701       Co715   2.072       .  S
N702        N714   1.327       .  A
N702        N718   1.322       .  A
N702       Co711   2.089       .  S
C703       N2043   1.355       .  A
C703        C734   1.481       .  S
C704        C723   1.464       .  S
C704        H708   1.080       .  S
N705        C716   1.338       .  A
N705       Co715   2.083       .  S
N707       C2039   1.355   1_455  A
C709       N1393   1.353       .  A
C709        C721   1.463   1_655  S
C709        C746   1.483       .  S
Co711      N2025   2.083   1_455  S
Co711      N1029   2.095       .  S
Co711     Cl2058   2.444   1_455  S
N712        C723   1.353       .  A
C713        C847   1.490       .  S
Co715      N1031   2.099       .  S
C716       H1033   1.079       .  S
Cl722     Co2014   2.456       .  S
Cl722     Co2047   2.444       .  S
C723        C975   1.490       .  S
N725       C1377   1.353       .  A
C726        N744   1.349       .  A
C726        C763   1.464       .  S
C726        C924   1.485       .  S
N727        N744   1.325       .  A
N727        N749   1.318       .  A
N727      Co2100   2.077       .  S
C728        N753   1.334       .  A
C728        C766   1.453       .  S
C728        H773   1.081       .  S
H729        C770   1.081       .  S
C730        N754   1.347       .  A
C730       C2070   1.465   1_455  S
C730        H759   1.081       .  S
Co731       N739   2.092       .  S
Co731       N771   2.107       .  S
Co731       N747   2.088       .  S
N732        C770   1.343       .  A
N732        N739   1.321       .  A
N732       Co733   2.089       .  S
Co733       N736   2.096       .  S
Co733       N753   2.075       .  S
Co733      N2076   2.091       .  S
C734       C2066   1.465       .  S
N735        N742   1.320       .  A
N735        N765   1.328       .  A
N735       Co768   2.106       .  S
N736       N1422   1.321   1_565  A
N736        N772   1.326       .  A
N737        C766   1.353       .  A
N737        N747   1.326       .  A
H738        C763   1.081       .  S
N739        N760   1.324       .  A
N740        N758   1.318       .  A
N740        N745   1.325       .  A
N740      Co2069   2.091   1_455  S
C741        N745   1.351       .  A
C741        C769   1.466       .  S
C741        C799   1.495       .  S
N742        C757   1.334       .  A
N742       Co764   2.064       .  S
C743        N771   1.349       .  A
C743       C1414   1.468       .  S
C743        H777   1.081       .  S
C746        N767   1.350   1_655  A
C746       C1411   1.468       .  S
N747        N753   1.321       .  A
N748        C774   1.338       .  A
N748        N750   1.319       .  A
N748       Co764   2.071       .  S
N749        C763   1.337       .  A
N750        N778   1.318       .  A
N750       Co768   2.068       .  S
H751        C774   1.079       .  S
H752        C769   1.081       .  S
N754       N1404   1.321   1_455  A
N754       Co768   2.099       .  S
N755        N767   1.326       .  A
N755       N1439   1.320   1_455  A
N755       Co764   2.087       .  S
C756        N760   1.349       .  A
C756        C770   1.462       .  S
C756        C815   1.476       .  S
C757        C776   1.452       .  S
C757        H761   1.078       .  S
N758        C769   1.346       .  A
C762        N778   1.346       .  A
C762        C774   1.463       .  S
C762        C892   1.470       .  S
Co764      N2063   2.077   1_455  S
Co764     Cl2111   2.444   1_455  S
N765        C776   1.358       .  A
C766        C911   1.473       .  S
Co768     Cl2111   2.459   1_455  S
N771       N1423   1.320   1_565  A
Cl775     Co2100   2.444       .  S
Cl775     Co2104   2.459       .  S
C776        C780   1.484       .  S
C779        H786   1.086       .  S
C779        C780   1.388       .  A
C779        C784   1.401       .  A
C780        C781   1.415       .  A
C781        C788   1.507       .  S
C781        C782   1.407       .  A
C782        H787   1.080       .  S
C782        C783   1.415       .  A
C783        C784   1.441       .  A
C784        C785   1.499       .  S
C785        H789   1.109       .  S
C785        H790   1.112       .  S
C785        H791   1.094       .  S
C788        H792   1.106       .  S
C788        H793   1.111       .  S
C788        H794   1.111       .  S
C795        H802   1.074       .  S
C795        C796   1.416       .  A
C795        C800   1.404       .  A
C796        C797   1.433       .  A
C797        C804   1.510       .  S
C797        C798   1.412       .  A
C798        H803   1.084       .  S
C798        C799   1.405       .  A
C799        C800   1.414       .  A
C800        C801   1.508       .  S
C801        H805   1.111       .  S
C801        H806   1.108       .  S
C801        H807   1.110       .  S
C804        H808   1.102       .  S
C804        H809   1.109       .  S
C804        H810   1.111       .  S
C811        H818   1.074       .  S
C811        C812   1.427       .  A
C811        C816   1.403       .  A
C812        C813   1.442       .  A
C813        C820   1.509       .  S
C813        C814   1.408       .  A
C814        H819   1.085       .  S
C814        C815   1.392       .  A
C815        C816   1.402       .  A
C816        C817   1.510       .  S
C817        H821   1.110       .  S
C817        H822   1.110       .  S
C817        H823   1.110       .  S
C820        H824   1.093       .  S
C820        H825   1.111       .  S
C820        H826   1.109       .  S
C827        H834   1.083       .  S
C827        C828   1.414       .  A
C827        C832   1.403       .  A
C828        C829   1.440       .  A
C829        C836   1.512       .  S
C829        C830   1.399       .  A
C830        H835   1.085       .  S
C830        C831   1.389       .  A
C831        C832   1.411       .  A
C832        C833   1.507       .  S
C833        H837   1.110       .  S
C833        H838   1.111       .  S
C833        H839   1.109       .  S
C836        H840   1.081       .  S
C836        H841   1.104       .  S
C836        H842   1.111       .  S
C843        H850   1.069       .  S
C843        C844   1.415       .  A
C843        C848   1.409       .  A
C844        C845   1.443       .  A
C845        C852   1.518       .  S
C845        C846   1.403       .  A
C846        H851   1.081       .  S
C846        C847   1.396       .  A
C847        C848   1.415       .  A
C848        C849   1.508       .  S
C849        H853   1.111       .  S
C849        H854   1.110       .  S
C849        H855   1.110       .  S
C852        H856   1.108       .  S
C852        H857   1.098       .  S
C852        H858   1.112       .  S
C859        H866   1.085       .  S
C859        C860   1.385       .  A
C859        C864   1.403       .  A
C860        C861   1.398       .  A
C861        C868   1.509       .  S
C861        C862   1.401       .  A
C862        H867   1.073       .  S
C862        C863   1.428       .  A
C863        C864   1.451       .  A
C864        C865   1.510       .  S
C865        H869   1.109       .  S
C865        H870   1.111       .  S
C865        H871   1.086       .  S
C868        H872   1.110       .  S
C868        H873   1.110       .  S
C868        H874   1.111       .  S
C875        H882   1.074       .  S
C875        C876   1.422       .  A
C875        C880   1.410       .  A
C876        C877   1.429       .  A
C877        C884   1.514       .  S
C877        C878   1.399       .  A
C878        H883   1.081       .  S
C878        C879   1.416       .  A
C879        C880   1.429       .  A
C880        C881   1.510       .  S
C881        H885   1.111       .  S
C881        H886   1.100       .  S
C881        H887   1.103       .  S
C884        H888   1.106       .  S
C884        H889   1.104       .  S
C884        H890   1.111       .  S
C891        H898   1.085       .  S
C891        C892   1.401       .  A
C891        C896   1.398       .  A
C892        C893   1.405       .  A
C893        C900   1.510       .  S
C893        C894   1.395       .  A
C894        H899   1.077       .  S
C894        C895   1.423       .  A
C895        C896   1.430       .  A
C896        C897   1.514       .  S
C897        H901   1.111       .  S
C897        H902   1.110       .  S
C897        H903   1.103       .  S
C900        H904   1.106       .  S
C900        H905   1.110       .  S
C900        H906   1.111       .  S
C907        H914   1.070       .  S
C907        C908   1.421       .  A
C907        C912   1.397       .  A
C908        C909   1.452       .  A
C909        C916   1.519       .  S
C909        C910   1.410       .  A
C910        H915   1.085       .  S
C910        C911   1.393       .  A
C911        C912   1.401       .  A
C912        C913   1.511       .  S
C913        H917   1.111       .  S
C913        H918   1.105       .  S
C913        H919   1.111       .  S
C916        H920   1.106       .  S
C916        H921   1.104       .  S
C916        H922   1.111       .  S
C923        H930   1.083       .  S
C923        C924   1.392       .  A
C923        C928   1.404       .  A
C924        C925   1.406       .  A
C925        C932   1.508       .  S
C925        C926   1.402       .  A
C926        H931   1.084       .  S
C926        C927   1.429       .  A
C927        C928   1.452       .  A
C928        C929   1.517       .  S
C929        H933   1.111       .  S
C929        H934   1.104       .  S
C929        H935   1.100       .  S
C932        H936   1.111       .  S
C932        H937   1.110       .  S
C932        H938   1.111       .  S
C939        H946   1.085       .  S
C939        C940   1.385       .  A
C939        C944   1.403       .  A
C940        C941   1.401       .  A
C941        C948   1.509       .  S
C941        C942   1.406       .  A
C942        H947   1.075       .  S
C942        C943   1.428       .  A
C943       C1003   1.598       .  S
C943        C944   1.446       .  A
C944       C1279   1.501       .  S
C945       C1278   1.501       .  S
C945        H949   1.111       .  S
C945        H950   1.077       .  S
C945       H1285   1.111       .  S
C948        H952   1.110       .  S
C948        H953   1.110       .  S
C948        H954   1.110       .  S
H951       C1279   1.111       .  S
C955        H962   1.075       .  S
C955       C1290   1.424   1_554  A
C955       C1294   1.394       .  A
C956       C1003   1.587       .  S
C956       C1289   1.424       .  A
C956        C957   1.433       .  A
C957        C964   1.509       .  S
C957        C958   1.409       .  A
C958        H963   1.085       .  S
C958        C959   1.403       .  A
C959        C960   1.402       .  A
C960       C1295   1.511       .  S
C960       C1289   1.394       .  A
C961       C1294   1.511       .  S
C961        H965   1.111       .  S
C961        H966   1.107       .  S
C961       H1301   1.110       .  S
C964        H968   1.111       .  S
C964        H969   1.099       .  S
C964        H970   1.110       .  S
H967       C1295   1.110       .  S
C971       H1312   1.077       .  S
C971        C972   1.420       .  A
C971        C976   1.411       .  A
C972       C1003   1.577       .  S
C972        C973   1.441       .  A
C973        C980   1.512       .  S
C973        C974   1.400       .  A
C974        H979   1.080       .  S
C974        C975   1.394       .  A
C975        C976   1.412       .  A
C976        C977   1.507       .  S
C977       H1315   1.111       .  S
C977       H1316   1.109       .  S
C977        H983   1.110       .  S
H978       C1305   1.077       .  S
C980        H984   1.104       .  S
C980        H985   1.107       .  S
C980        H986   1.110       .  S
H981       C1311   1.111       .  S
H982       C1311   1.109       .  S
C987        H994   1.078       .  S
C987        C988   1.425       .  A
C987        C992   1.400       .  A
C988        C989   1.431       .  A
C989        C996   1.511       .  S
C989        C990   1.400       .  A
C990        H995   1.084       .  S
C990        C991   1.418       .  A
C991        C992   1.435       .  A
C992        C993   1.522       .  S
C993        H997   1.111       .  S
C993        H998   1.104       .  S
C993        H999   1.100       .  S
C996       H1000   1.106       .  S
C996       H1001   1.102       .  S
C996       H1002   1.108       .  S
C1003      C1325   1.573       .  S
C1004      C1229   1.548       .  S
C1004      C1242   1.595       .  S
C1004      C1261   1.601       .  S
C1004      C1322   1.595       .  S
C1005      C1162   1.574       .  S
C1005      C1178   1.596       .  S
C1005      C1197   1.607       .  S
C1005      C1213   1.574       .  S
C1006      C1117   1.586       .  S
C1006      C1130   1.584       .  S
C1006      C1146   1.583       .  S
C1006      C1210   1.581       .  S
C1007      N1025   1.341       .  A
C1007      C1044   1.462       .  S
C1007      C1165   1.468       .  S
N1008      N1025   1.319       .  A
N1008      N1030   1.321       .  A
N1008     Co1045   2.068       .  S
C1009      N1034   1.339       .  A
C1009      C1047   1.467       .  S
C1009      H1054   1.080       .  S
H1010      C1051   1.081       .  S
C1011      N1035   1.336       .  A
C1011      C1015   1.450       .  S
C1011      H1040   1.082       .  S
Co1012     N1030   2.084       .  S
Co1012     N1020   2.105       .  S
Co1012     N1052   2.083       .  S
Co1012    Cl2392   2.456   1_455  S
N1013      C1051   1.341       .  A
N1013      N1688   1.321   1_565  A
N1013     Co1014   2.088       .  S
Co1014     N1017   2.085       .  S
Co1014     N2370   2.085       .  S
Co1014     N1021   2.078       .  S
C1015      N1053   1.350       .  A
C1015      C1194   1.464       .  S
N1016      N1023   1.318       .  A
N1016      N1046   1.328       .  A
N1017      N1035   1.320       .  A
N1017      N1053   1.325       .  A
N1018      C1047   1.349       .  A
N1018      N1028   1.324       .  A
H1019      C1044   1.082       .  S
N1020      N1681   1.321   1_455  A
N1020      N1041   1.330       .  A
N1021      N1039   1.320       .  A
N1021      N1026   1.323       .  A
C1022      N1026   1.347       .  A
C1022      C1050   1.465       .  S
C1022      C1293   1.478       .  S
N1023      C1038   1.336       .  A
N1023     Co2381   2.083       .  S
C1024      N1052   1.337       .  A
C1024      C1027   1.451       .  S
C1024      H1058   1.082       .  S
C1027      N1048   1.352       .  A
C1027      C1274   1.470       .  S
N1028      N1034   1.318       .  A
N1029      C1055   1.343       .  A
N1029      N1699   1.320   1_455  A
N1030      C1044   1.343       .  A
N1031      N1697   1.320   1_565  A
N1031      N1059   1.330       .  A
H1032      C1055   1.081       .  S
N1034     Co2350   2.085   1_455  S
N1035     Co1049   2.072       .  S
N1036      N1048   1.327       .  A
N1036      N1052   1.322       .  A
N1036     Co1045   2.089       .  S
C1037      N2377   1.355       .  A
C1037      C1068   1.481       .  S
C1038      C1057   1.464       .  S
C1038      H1042   1.080       .  S
N1039      C1050   1.338       .  A
N1039     Co1049   2.083       .  S
N1041      C2373   1.355   1_455  A
C1043      N1727   1.353       .  A
C1043      C1055   1.463   1_655  S
C1043      C1080   1.483       .  S
Co1045     N2359   2.083   1_455  S
Co1045    Cl2392   2.444   1_455  S
N1046      C1057   1.353       .  A
C1047      C1181   1.490       .  S
Cl1056    Co2348   2.456       .  S
Cl1056    Co2381   2.444       .  S
C1057      C1309   1.490       .  S
N1059      C1711   1.353       .  A
C1060      N1078   1.349       .  A
C1060      C1097   1.464       .  S
C1060      C1258   1.485       .  S
N1061      N1078   1.325       .  A
N1061      N1083   1.318       .  A
N1061     Co2434   2.077       .  S
C1062      N1087   1.334       .  A
C1062      C1100   1.453       .  S
C1062      H1107   1.081       .  S
H1063      C1104   1.081       .  S
C1064      N1088   1.347       .  A
C1064      C2404   1.465   1_455  S
C1064      H1093   1.081       .  S
Co1065     N1073   2.092       .  S
Co1065     N1105   2.107       .  S
Co1065     N1081   2.088       .  S
N1066      C1104   1.343       .  A
N1066      N1073   1.321       .  A
N1066     Co1067   2.089       .  S
Co1067     N1070   2.096       .  S
Co1067     N1087   2.075       .  S
Co1067     N2410   2.091       .  S
C1068      C2400   1.465       .  S
N1069      N1076   1.320       .  A
N1069      N1099   1.328       .  A
N1069     Co1102   2.106       .  S
N1070      N1756   1.321   1_565  A
N1070      N1106   1.326       .  A
N1071      C1100   1.353       .  A
N1071      N1081   1.326       .  A
H1072      C1097   1.081       .  S
N1073      N1094   1.324       .  A
N1074      N1092   1.318       .  A
N1074      N1079   1.325       .  A
N1074     Co2403   2.091   1_455  S
C1075      N1079   1.351       .  A
C1075      C1103   1.466       .  S
C1075      C1133   1.495       .  S
N1076      C1091   1.334       .  A
N1076     Co1098   2.064       .  S
C1077      N1105   1.349       .  A
C1077      C1748   1.468       .  S
C1077      H1111   1.081       .  S
C1080      N1101   1.350   1_655  A
C1080      C1745   1.468       .  S
N1081      N1087   1.321       .  A
N1082      C1108   1.338       .  A
N1082      N1084   1.319       .  A
N1082     Co1098   2.071       .  S
N1083      C1097   1.337       .  A
N1084      N1112   1.318       .  A
N1084     Co1102   2.068       .  S
H1085      C1108   1.079       .  S
H1086      C1103   1.081       .  S
N1088      N1738   1.321   1_455  A
N1088     Co1102   2.099       .  S
N1089      N1101   1.326       .  A
N1089      N1773   1.320   1_455  A
N1089     Co1098   2.087       .  S
C1090      N1094   1.349       .  A
C1090      C1104   1.462       .  S
C1090      C1149   1.476       .  S
C1091      C1110   1.452       .  S
C1091      H1095   1.078       .  S
N1092      C1103   1.346       .  A
C1096      N1112   1.346       .  A
C1096      C1108   1.463       .  S
C1096      C1226   1.470       .  S
Co1098     N2397   2.077   1_455  S
Co1098    Cl2445   2.444   1_455  S
N1099      C1110   1.358       .  A
C1100      C1245   1.473       .  S
Co1102    Cl2445   2.459   1_455  S
N1105      N1757   1.320   1_565  A
Cl1109    Co2434   2.444       .  S
Cl1109    Co2438   2.459       .  S
C1110      C1114   1.484       .  S
C1113      H1120   1.086       .  S
C1113      C1114   1.388       .  A
C1113      C1118   1.401       .  A
C1114      C1115   1.415       .  A
C1115      C1122   1.507       .  S
C1115      C1116   1.407       .  A
C1116      H1121   1.080       .  S
C1116      C1117   1.415       .  A
C1117      C1118   1.441       .  A
C1118      C1119   1.499       .  S
C1119      H1123   1.109       .  S
C1119      H1124   1.112       .  S
C1119      H1125   1.094       .  S
C1122      H1126   1.106       .  S
C1122      H1127   1.111       .  S
C1122      H1128   1.111       .  S
C1129      H1136   1.074       .  S
C1129      C1130   1.416       .  A
C1129      C1134   1.404       .  A
C1130      C1131   1.433       .  A
C1131      C1138   1.510       .  S
C1131      C1132   1.412       .  A
C1132      H1137   1.084       .  S
C1132      C1133   1.405       .  A
C1133      C1134   1.414       .  A
C1134      C1135   1.508       .  S
C1135      H1139   1.111       .  S
C1135      H1140   1.108       .  S
C1135      H1141   1.110       .  S
C1138      H1142   1.102       .  S
C1138      H1143   1.109       .  S
C1138      H1144   1.111       .  S
C1145      H1152   1.074       .  S
C1145      C1146   1.427       .  A
C1145      C1150   1.403       .  A
C1146      C1147   1.442       .  A
C1147      C1154   1.509       .  S
C1147      C1148   1.408       .  A
C1148      H1153   1.085       .  S
C1148      C1149   1.392       .  A
C1149      C1150   1.402       .  A
C1150      C1151   1.510       .  S
C1151      H1155   1.110       .  S
C1151      H1156   1.110       .  S
C1151      H1157   1.110       .  S
C1154      H1158   1.093       .  S
C1154      H1159   1.111       .  S
C1154      H1160   1.109       .  S
C1161      H1168   1.083       .  S
C1161      C1162   1.414       .  A
C1161      C1166   1.403       .  A
C1162      C1163   1.440       .  A
C1163      C1170   1.512       .  S
C1163      C1164   1.399       .  A
C1164      H1169   1.085       .  S
C1164      C1165   1.389       .  A
C1165      C1166   1.411       .  A
C1166      C1167   1.507       .  S
C1167      H1171   1.110       .  S
C1167      H1172   1.111       .  S
C1167      H1173   1.109       .  S
C1170      H1174   1.081       .  S
C1170      H1175   1.104       .  S
C1170      H1176   1.111       .  S
C1177      H1184   1.069       .  S
C1177      C1178   1.415       .  A
C1177      C1182   1.409       .  A
C1178      C1179   1.443       .  A
C1179      C1186   1.518       .  S
C1179      C1180   1.403       .  A
C1180      H1185   1.081       .  S
C1180      C1181   1.396       .  A
C1181      C1182   1.415       .  A
C1182      C1183   1.508       .  S
C1183      H1187   1.111       .  S
C1183      H1188   1.110       .  S
C1183      H1189   1.110       .  S
C1186      H1190   1.108       .  S
C1186      H1191   1.098       .  S
C1186      H1192   1.112       .  S
C1193      H1200   1.085       .  S
C1193      C1194   1.385       .  A
C1193      C1198   1.403       .  A
C1194      C1195   1.398       .  A
C1195      C1202   1.509       .  S
C1195      C1196   1.401       .  A
C1196      H1201   1.073       .  S
C1196      C1197   1.428       .  A
C1197      C1198   1.451       .  A
C1198      C1199   1.510       .  S
C1199      H1203   1.109       .  S
C1199      H1204   1.111       .  S
C1199      H1205   1.086       .  S
C1202      H1206   1.110       .  S
C1202      H1207   1.110       .  S
C1202      H1208   1.111       .  S
C1209      H1216   1.074       .  S
C1209      C1210   1.422       .  A
C1209      C1214   1.410       .  A
C1210      C1211   1.429       .  A
C1211      C1218   1.514       .  S
C1211      C1212   1.399       .  A
C1212      H1217   1.081       .  S
C1212      C1213   1.416       .  A
C1213      C1214   1.429       .  A
C1214      C1215   1.510       .  S
C1215      H1219   1.111       .  S
C1215      H1220   1.100       .  S
C1215      H1221   1.103       .  S
C1218      H1222   1.106       .  S
C1218      H1223   1.104       .  S
C1218      H1224   1.111       .  S
C1225      H1232   1.085       .  S
C1225      C1226   1.401       .  A
C1225      C1230   1.398       .  A
C1226      C1227   1.405       .  A
C1227      C1234   1.510       .  S
C1227      C1228   1.395       .  A
C1228      H1233   1.077       .  S
C1228      C1229   1.423       .  A
C1229      C1230   1.430       .  A
C1230      C1231   1.514       .  S
C1231      H1235   1.111       .  S
C1231      H1236   1.110       .  S
C1231      H1237   1.103       .  S
C1234      H1238   1.106       .  S
C1234      H1239   1.110       .  S
C1234      H1240   1.111       .  S
C1241      H1248   1.070       .  S
C1241      C1242   1.420       .  A
C1241      C1246   1.397       .  A
C1242      C1243   1.452       .  A
C1243      C1250   1.519       .  S
C1243      C1244   1.410       .  A
C1244      H1249   1.085       .  S
C1244      C1245   1.393       .  A
C1245      C1246   1.401       .  A
C1246      C1247   1.511       .  S
C1247      H1251   1.111       .  S
C1247      H1252   1.105       .  S
C1247      H1253   1.111       .  S
C1250      H1254   1.106       .  S
C1250      H1255   1.104       .  S
C1250      H1256   1.111       .  S
C1257      H1264   1.083       .  S
C1257      C1258   1.392       .  A
C1257      C1262   1.404       .  A
C1258      C1259   1.406       .  A
C1259      C1266   1.508       .  S
C1259      C1260   1.402       .  A
C1260      H1265   1.084       .  S
C1260      C1261   1.429       .  A
C1261      C1262   1.452       .  A
C1262      C1263   1.517       .  S
C1263      H1267   1.111       .  S
C1263      H1268   1.104       .  S
C1263      H1269   1.100       .  S
C1266      H1270   1.111       .  S
C1266      H1271   1.110       .  S
C1266      H1272   1.111       .  S
C1273      H1280   1.085   1_556  S
C1273      C1274   1.385       .  A
C1273      C1278   1.403   1_556  A
C1274      C1275   1.401       .  A
C1275      C1282   1.509       .  S
C1275      C1276   1.406       .  A
C1276      H1281   1.075       .  S
C1276      C1277   1.428       .  A
C1277      C1278   1.446   1_556  A
C1279      H1283   1.111       .  S
C1279      H1284   1.077       .  S
C1282      H1286   1.110       .  S
C1282      H1287   1.110       .  S
C1282      H1288   1.110       .  S
C1289      H1296   1.075       .  S
C1290      C1291   1.433       .  A
C1291      C1298   1.509       .  S
C1291      C1292   1.409       .  A
C1292      H1297   1.085       .  S
C1292      C1293   1.403       .  A
C1293      C1294   1.402   1_556  A
C1295      H1299   1.111       .  S
C1295      H1300   1.107       .  S
C1298      H1302   1.111       .  S
C1298      H1303   1.099       .  S
C1298      H1304   1.110       .  S
C1305      C1306   1.420       .  A
C1305      C1310   1.411       .  A
C1306      C1307   1.441       .  A
C1307      C1314   1.512   1_556  S
C1307      C1308   1.400       .  A
C1308      H1313   1.080       .  S
C1308      C1309   1.394       .  A
C1309      C1310   1.412       .  A
C1310      C1311   1.507       .  S
C1311      H1317   1.110       .  S
C1314      H1318   1.104       .  S
C1314      H1319   1.107   1_554  S
C1314      H1320   1.110       .  S
C1321      H1328   1.078       .  S
C1321      C1322   1.425       .  A
C1321      C1326   1.400       .  A
C1322      C1323   1.431       .  A
C1323      C1330   1.511       .  S
C1323      C1324   1.400       .  A
C1324      H1329   1.084       .  S
C1324      C1325   1.418       .  A
C1325      C1326   1.435       .  A
C1326      C1327   1.522       .  S
C1327      H1331   1.111       .  S
C1327      H1332   1.104       .  S
C1327      H1333   1.100       .  S
C1330      H1334   1.106       .  S
C1330      H1335   1.102       .  S
C1330      H1336   1.108       .  S
C1337      C1945   1.598   1_554  S
C1337      C1958   1.587   1_554  S
C1337      C1974   1.577   1_554  S
C1337      C1659   1.573       .  S
C1338      C1563   1.548       .  S
C1338      C1576   1.595       .  S
C1338      C1595   1.601       .  S
C1338      C1656   1.595       .  S
C1339      C1496   1.574       .  S
C1339      C1512   1.596       .  S
C1339      C1531   1.607       .  S
C1339      C1547   1.574       .  S
C1340      C1451   1.586       .  S
C1340      C1464   1.584       .  S
C1340      C1480   1.583       .  S
C1340      C1544   1.581       .  S
C1341      N1359   1.341       .  A
C1341      C1378   1.462       .  S
C1341      C1499   1.468       .  S
N1342      N1359   1.319       .  A
N1342      N1364   1.321       .  A
N1342     Co1379   2.068       .  S
C1343      N1368   1.339       .  A
C1343      C1381   1.467       .  S
C1343      H1388   1.080       .  S
H1344      C1385   1.081       .  S
C1345      N1369   1.336       .  A
C1345      C1349   1.450       .  S
C1345      H1374   1.082       .  S
Co1346     N1364   2.084       .  S
Co1346     N1354   2.105       .  S
Co1346     N1386   2.083       .  S
Co1346     N2030   2.077   1_545  S
N1347      C1385   1.341       .  A
N1347     Co1348   2.088       .  S
Co1348     N1351   2.085       .  S
Co1348     N1355   2.078       .  S
Co1348    Cl2058   2.447       .  S
C1349      N1387   1.350       .  A
C1349      C1528   1.464       .  S
N1350      N1357   1.318       .  A
N1350      N1380   1.328       .  A
N1350     Co2051   2.086   1_545  S
N1351      N1369   1.320       .  A
N1351      N1387   1.325       .  A
N1352      C1381   1.349       .  A
N1352      N1362   1.324       .  A
H1353      C1378   1.082       .  S
N1354      N1375   1.330       .  A
N1355      N1373   1.320       .  A
N1355      N1360   1.323       .  A
C1356      N1360   1.347       .  A
C1356      C1384   1.465       .  S
C1356      C1627   1.478       .  S
N1357      C1372   1.336       .  A
C1358      N1386   1.337       .  A
C1358      C1361   1.451       .  S
C1358      H1392   1.082       .  S
C1361      N1382   1.352       .  A
C1361      C1608   1.470       .  S
N1362      N1368   1.318       .  A
N1362     Co2014   2.077       .  S
N1363      C1389   1.343       .  A
N1363     Co1713   2.095   1_554  S
N1364      C1378   1.343       .  A
N1365      N1393   1.330       .  A
N1365     Co1717   2.099   1_554  S
H1366      C1389   1.081       .  S
H1367      C1718   1.079   1_554  S
N1369     Co1383   2.072       .  S
N1370      N1382   1.327       .  A
N1370      N1386   1.322       .  A
N1370     Co1379   2.089       .  S
C1371      C2053   1.459   1_545  S
C1371      C1402   1.481       .  S
C1372      C1391   1.464       .  S
C1372      H1376   1.080       .  S
N1373      C1384   1.338       .  A
N1373     Co1383   2.083       .  S
C1377      C1389   1.463   1_565  S
C1377      C1414   1.483       .  S
Co1379     N1697   2.095       .  S
N1380      C1391   1.353       .  A
C1381      C1515   1.490       .  S
Co1383     N2018   2.086       .  S
Co1383     N1699   2.099       .  S
Co1383    Cl2058   2.458       .  S
C1384      H1701   1.079       .  S
C1385      C2039   1.459       .  S
Cl1390    Co2016   2.447   1_545  S
Cl1390    Co2051   2.458   1_545  S
C1391      C1643   1.490       .  S
C1394      N1412   1.349       .  A
C1394      C1431   1.464       .  S
C1394      C1592   1.485       .  S
N1395      N1412   1.325       .  A
N1395      N1417   1.318       .  A
C1396      N1421   1.334       .  A
C1396      C1434   1.453       .  S
C1396      H1441   1.081       .  S
H1397      C1438   1.081       .  S
C1398      N1422   1.347       .  A
C1398      H1427   1.081       .  S
Co1399     N2085   2.081       .  S
Co1399     N1407   2.092       .  S
Co1399     N1439   2.107       .  S
Co1399     N1415   2.088       .  S
Co1399    Cl2111   2.460       .  S
N1400      C1438   1.343       .  A
N1400      N1407   1.321       .  A
N1400     Co1401   2.089       .  S
Co1401     N1404   2.096       .  S
Co1401     N1421   2.075       .  S
Co1401    Cl2111   2.445       .  S
C1402      N2108   1.352   1_545  A
N1403      N1410   1.320       .  A
N1403      N1433   1.328       .  A
N1403     Co1436   2.106       .  S
N1404      N1440   1.326       .  A
N1405      C1434   1.353       .  A
N1405      N1415   1.326       .  A
H1406      C1431   1.081       .  S
N1407      N1428   1.324       .  A
N1408      N1426   1.318       .  A
N1408      N1413   1.325       .  A
C1409      N1413   1.351       .  A
C1409      C1437   1.466       .  S
C1409      C1467   1.495       .  S
N1410      C1425   1.334       .  A
N1410     Co1432   2.064       .  S
C1411      N1439   1.349       .  A
C1411      H1445   1.081       .  S
C1414      N1435   1.350   1_565  A
N1415      N1421   1.321       .  A
N1416      C1442   1.338       .  A
N1416      N1418   1.319       .  A
N1416     Co1432   2.071       .  S
N1417      C1431   1.337       .  A
N1417     Co2067   2.081   1_545  S
N1418      N1446   1.318       .  A
N1418     Co1436   2.068       .  S
H1419      C1442   1.079       .  S
H1420      C1437   1.081       .  S
N1422     Co1436   2.099       .  S
N1423      N1435   1.326       .  A
N1423     Co1432   2.087       .  S
C1424      N1428   1.349       .  A
C1424      C1438   1.462       .  S
C1424      C1483   1.476       .  S
C1425      C1444   1.452       .  S
C1425      H1429   1.078       .  S
N1426      C1437   1.346       .  A
N1426     Co2104   2.095       .  S
C1430      N1446   1.346       .  A
C1430      C1442   1.463       .  S
C1430      C1560   1.470       .  S
N1433      C1444   1.358       .  A
C1434      C1579   1.473       .  S
Co1436     N2094   2.095   1_545  S
N1440      C2070   1.352       .  A
Cl1443    Co2067   2.460   1_545  S
Cl1443    Co2069   2.445   1_545  S
C1444      C1448   1.484       .  S
C1447      H1454   1.086       .  S
C1447      C1448   1.388       .  A
C1447      C1452   1.401       .  A
C1448      C1449   1.415       .  A
C1449      C1456   1.507       .  S
C1449      C1450   1.407       .  A
C1450      H1455   1.080       .  S
C1450      C1451   1.415       .  A
C1451      C1452   1.441       .  A
C1452      C1453   1.499       .  S
C1453      H1457   1.109       .  S
C1453      H1458   1.112       .  S
C1453      H1459   1.094       .  S
C1456      H1460   1.106       .  S
C1456      H1461   1.111       .  S
C1456      H1462   1.111       .  S
C1463      H1470   1.074       .  S
C1463      C1464   1.416       .  A
C1463      C1468   1.404       .  A
C1464      C1465   1.433       .  A
C1465      C1472   1.510       .  S
C1465      C1466   1.412       .  A
C1466      H1471   1.084       .  S
C1466      C1467   1.405       .  A
C1467      C1468   1.414       .  A
C1468      C1469   1.508       .  S
C1469      H1473   1.111       .  S
C1469      H1474   1.108       .  S
C1469      H1475   1.110       .  S
C1472      H1476   1.102       .  S
C1472      H1477   1.109       .  S
C1472      H1478   1.111       .  S
C1479      H1486   1.074       .  S
C1479      C1480   1.427       .  A
C1479      C1484   1.403       .  A
C1480      C1481   1.442       .  A
C1481      C1488   1.509       .  S
C1481      C1482   1.408       .  A
C1482      H1487   1.085       .  S
C1482      C1483   1.392       .  A
C1483      C1484   1.402       .  A
C1484      C1485   1.510       .  S
C1485      H1489   1.110       .  S
C1485      H1490   1.110       .  S
C1485      H1491   1.110       .  S
C1488      H1492   1.093       .  S
C1488      H1493   1.111       .  S
C1488      H1494   1.109       .  S
C1495      H1502   1.083       .  S
C1495      C1496   1.414       .  A
C1495      C1500   1.403       .  A
C1496      C1497   1.440       .  A
C1497      C1504   1.512       .  S
C1497      C1498   1.399       .  A
C1498      H1503   1.085       .  S
C1498      C1499   1.389       .  A
C1499      C1500   1.411       .  A
C1500      C1501   1.507       .  S
C1501      H1505   1.110       .  S
C1501      H1506   1.111       .  S
C1501      H1507   1.109       .  S
C1504      H1508   1.081       .  S
C1504      H1509   1.104       .  S
C1504      H1510   1.111       .  S
C1511      H1518   1.069       .  S
C1511      C1512   1.415       .  A
C1511      C1516   1.409       .  A
C1512      C1513   1.443       .  A
C1513      C1520   1.518       .  S
C1513      C1514   1.403       .  A
C1514      H1519   1.081       .  S
C1514      C1515   1.396       .  A
C1515      C1516   1.415       .  A
C1516      C1517   1.508       .  S
C1517      H1521   1.111       .  S
C1517      H1522   1.110       .  S
C1517      H1523   1.110       .  S
C1520      H1524   1.108       .  S
C1520      H1525   1.098       .  S
C1520      H1526   1.112       .  S
C1527      H1534   1.085       .  S
C1527      C1528   1.385       .  A
C1527      C1532   1.403       .  A
C1528      C1529   1.398       .  A
C1529      C1536   1.509       .  S
C1529      C1530   1.401       .  A
C1530      H1535   1.073       .  S
C1530      C1531   1.428       .  A
C1531      C1532   1.451       .  A
C1532      C1533   1.510       .  S
C1533      H1537   1.109       .  S
C1533      H1538   1.111       .  S
C1533      H1539   1.086       .  S
C1536      H1540   1.110       .  S
C1536      H1541   1.110       .  S
C1536      H1542   1.111       .  S
C1543      H1550   1.074       .  S
C1543      C1544   1.422       .  A
C1543      C1548   1.410       .  A
C1544      C1545   1.429       .  A
C1545      C1552   1.514       .  S
C1545      C1546   1.399       .  A
C1546      H1551   1.081       .  S
C1546      C1547   1.416       .  A
C1547      C1548   1.429       .  A
C1548      C1549   1.510       .  S
C1549      H1553   1.111       .  S
C1549      H1554   1.100       .  S
C1549      H1555   1.103       .  S
C1552      H1556   1.106       .  S
C1552      H1557   1.104       .  S
C1552      H1558   1.111       .  S
C1559      H1566   1.085       .  S
C1559      C1560   1.401       .  A
C1559      C1564   1.398       .  A
C1560      C1561   1.405       .  A
C1561      C1568   1.510       .  S
C1561      C1562   1.395       .  A
C1562      H1567   1.077       .  S
C1562      C1563   1.423       .  A
C1563      C1564   1.430       .  A
C1564      C1565   1.514       .  S
C1565      H1569   1.111       .  S
C1565      H1570   1.110       .  S
C1565      H1571   1.103       .  S
C1568      H1572   1.106       .  S
C1568      H1573   1.110       .  S
C1568      H1574   1.111       .  S
C1575      H1582   1.070       .  S
C1575      C1576   1.421       .  A
C1575      C1580   1.397       .  A
C1576      C1577   1.452       .  A
C1577      C1584   1.519       .  S
C1577      C1578   1.410       .  A
C1578      H1583   1.085       .  S
C1578      C1579   1.393       .  A
C1579      C1580   1.401       .  A
C1580      C1581   1.511       .  S
C1581      H1585   1.111       .  S
C1581      H1586   1.105       .  S
C1581      H1587   1.111       .  S
C1584      H1588   1.106       .  S
C1584      H1589   1.104       .  S
C1584      H1590   1.111       .  S
C1591      H1598   1.083       .  S
C1591      C1592   1.392       .  A
C1591      C1596   1.404       .  A
C1592      C1593   1.406       .  A
C1593      C1600   1.508       .  S
C1593      C1594   1.402       .  A
C1594      H1599   1.084       .  S
C1594      C1595   1.429       .  A
C1595      C1596   1.452       .  A
C1596      C1597   1.517       .  S
C1597      H1601   1.111       .  S
C1597      H1602   1.104       .  S
C1597      H1603   1.100       .  S
C1600      H1604   1.111       .  S
C1600      H1605   1.110       .  S
C1600      H1606   1.111       .  S
C1607      H1614   1.085       .  S
C1607      C1608   1.385       .  A
C1607      C1612   1.403       .  A
C1608      C1609   1.401       .  A
C1609      C1616   1.509       .  S
C1609      C1610   1.406       .  A
C1610      H1615   1.075       .  S
C1610      C1611   1.428       .  A
C1611      C1671   1.598       .  S
C1611      C1612   1.446       .  A
C1612      C1947   1.501       .  S
C1613      C1946   1.501       .  S
C1613      H1617   1.111       .  S
C1613      H1618   1.077       .  S
C1613      H1953   1.111       .  S
C1616      H1620   1.110       .  S
C1616      H1621   1.110       .  S
C1616      H1622   1.110       .  S
H1619      C1947   1.111       .  S
C1623      H1630   1.075       .  S
C1623      C1958   1.424   1_554  A
C1623      C1962   1.394       .  A
C1624      C1671   1.587       .  S
C1624      C1957   1.424       .  A
C1624      C1625   1.433       .  A
C1625      C1632   1.509       .  S
C1625      C1626   1.409       .  A
C1626      H1631   1.085       .  S
C1626      C1627   1.403       .  A
C1627      C1628   1.402       .  A
C1628      C1963   1.511       .  S
C1628      C1957   1.394       .  A
C1629      C1962   1.511       .  S
C1629      H1633   1.111       .  S
C1629      H1634   1.107       .  S
C1629      H1969   1.110       .  S
C1632      H1636   1.111       .  S
C1632      H1637   1.099       .  S
C1632      H1638   1.110       .  S
H1635      C1963   1.110       .  S
C1639      H1980   1.077       .  S
C1639      C1640   1.420       .  A
C1639      C1644   1.411       .  A
C1640      C1671   1.577       .  S
C1640      C1641   1.441       .  A
C1641      C1648   1.512       .  S
C1641      C1642   1.400       .  A
C1642      H1647   1.080       .  S
C1642      C1643   1.394       .  A
C1643      C1644   1.412       .  A
C1644      C1645   1.507       .  S
C1645      H1983   1.111       .  S
C1645      H1984   1.109       .  S
C1645      H1651   1.110       .  S
H1646      C1973   1.077       .  S
C1648      H1652   1.104       .  S
C1648      H1653   1.107       .  S
C1648      H1654   1.110       .  S
H1649      C1979   1.111       .  S
H1650      C1979   1.109       .  S
C1655      H1662   1.078       .  S
C1655      C1656   1.425       .  A
C1655      C1660   1.400       .  A
C1656      C1657   1.431       .  A
C1657      C1664   1.511       .  S
C1657      C1658   1.400       .  A
C1658      H1663   1.084       .  S
C1658      C1659   1.418       .  A
C1659      C1660   1.435       .  A
C1660      C1661   1.522       .  S
C1661      H1665   1.111       .  S
C1661      H1666   1.104       .  S
C1661      H1667   1.100       .  S
C1664      H1668   1.106       .  S
C1664      H1669   1.102       .  S
C1664      H1670   1.108       .  S
C1671      C1993   1.573       .  S
C1672      C1897   1.548       .  S
C1672      C1910   1.595       .  S
C1672      C1929   1.601       .  S
C1672      C1990   1.595       .  S
C1673      C1830   1.574       .  S
C1673      C1846   1.596       .  S
C1673      C1865   1.607       .  S
C1673      C1881   1.574       .  S
C1674      C1785   1.586       .  S
C1674      C1798   1.584       .  S
C1674      C1814   1.583       .  S
C1674      C1878   1.581       .  S
C1675      N1693   1.341       .  A
C1675      C1712   1.462       .  S
C1675      C1833   1.468       .  S
N1676      N1693   1.319       .  A
N1676      N1698   1.321       .  A
N1676     Co1713   2.068       .  S
C1677      N1702   1.339       .  A
C1677      C1715   1.467       .  S
C1677      H1722   1.080       .  S
H1678      C1719   1.081       .  S
C1679      N1703   1.336       .  A
C1679      C1683   1.450       .  S
C1679      H1708   1.082       .  S
Co1680     N1698   2.084       .  S
Co1680     N1688   2.105       .  S
Co1680     N1720   2.083       .  S
Co1680     N2364   2.077   1_545  S
N1681      C1719   1.341       .  A
N1681     Co1682   2.088       .  S
Co1682     N1685   2.085       .  S
Co1682     N1689   2.078       .  S
Co1682    Cl2392   2.447       .  S
C1683      N1721   1.350       .  A
C1683      C1862   1.464       .  S
N1684      N1691   1.318       .  A
N1684      N1714   1.328       .  A
N1684     Co2385   2.086   1_545  S
N1685      N1703   1.320       .  A
N1685      N1721   1.325       .  A
N1686      C1715   1.349       .  A
N1686      N1696   1.324       .  A
H1687      C1712   1.082       .  S
N1688      N1709   1.330       .  A
N1689      N1707   1.320       .  A
N1689      N1694   1.323       .  A
C1690      N1694   1.347       .  A
C1690      C1718   1.465       .  S
C1690      C1961   1.478       .  S
N1691      C1706   1.336       .  A
C1692      N1720   1.337       .  A
C1692      C1695   1.451       .  S
C1692      H1726   1.082       .  S
C1695      N1716   1.352       .  A
C1695      C1942   1.470       .  S
N1696      N1702   1.318       .  A
N1696     Co2348   2.077       .  S
N1697      C1723   1.343       .  A
N1698      C1712   1.343       .  A
N1699      N1727   1.330       .  A
H1700      C1723   1.081       .  S
N1703     Co1717   2.072       .  S
N1704      N1716   1.327       .  A
N1704      N1720   1.322       .  A
N1704     Co1713   2.089       .  S
C1705      C2387   1.459   1_545  S
C1705      C1736   1.481       .  S
C1706      C1725   1.464       .  S
C1706      H1710   1.080       .  S
N1707      C1718   1.338       .  A
N1707     Co1717   2.083       .  S
C1711      C1723   1.463   1_565  S
C1711      C1748   1.483       .  S
N1714      C1725   1.353       .  A
C1715      C1849   1.490       .  S
Co1717     N2352   2.086       .  S
Co1717    Cl2392   2.458       .  S
C1719      C2373   1.459       .  S
Cl1724    Co2350   2.447   1_545  S
Cl1724    Co2385   2.458   1_545  S
C1725      C1977   1.490       .  S
C1728      N1746   1.349       .  A
C1728      C1765   1.464       .  S
C1728      C1926   1.485       .  S
N1729      N1746   1.325       .  A
N1729      N1751   1.318       .  A
C1730      N1755   1.334       .  A
C1730      C1768   1.453       .  S
C1730      H1775   1.081       .  S
H1731      C1772   1.081       .  S
C1732      N1756   1.347       .  A
C1732      H1761   1.081       .  S
Co1733     N2419   2.081       .  S
Co1733     N1741   2.092       .  S
Co1733     N1773   2.107       .  S
Co1733     N1749   2.088       .  S
Co1733    Cl2445   2.460       .  S
N1734      C1772   1.343       .  A
N1734      N1741   1.321       .  A
N1734     Co1735   2.089       .  S
Co1735     N1738   2.096       .  S
Co1735     N1755   2.075       .  S
Co1735    Cl2445   2.445       .  S
C1736      N2442   1.352   1_545  A
N1737      N1744   1.320       .  A
N1737      N1767   1.328       .  A
N1737     Co1770   2.106       .  S
N1738      N1774   1.326       .  A
N1739      C1768   1.353       .  A
N1739      N1749   1.326       .  A
H1740      C1765   1.081       .  S
N1741      N1762   1.324       .  A
N1742      N1760   1.318       .  A
N1742      N1747   1.325       .  A
C1743      N1747   1.351       .  A
C1743      C1771   1.466       .  S
C1743      C1801   1.495       .  S
N1744      C1759   1.334       .  A
N1744     Co1766   2.064       .  S
C1745      N1773   1.349       .  A
C1745      H1779   1.081       .  S
C1748      N1769   1.350   1_565  A
N1749      N1755   1.321       .  A
N1750      C1776   1.338       .  A
N1750      N1752   1.319       .  A
N1750     Co1766   2.071       .  S
N1751      C1765   1.337       .  A
N1751     Co2401   2.081   1_545  S
N1752      N1780   1.318       .  A
N1752     Co1770   2.068       .  S
H1753      C1776   1.079       .  S
H1754      C1771   1.081       .  S
N1756     Co1770   2.099       .  S
N1757      N1769   1.326       .  A
N1757     Co1766   2.087       .  S
C1758      N1762   1.349       .  A
C1758      C1772   1.462       .  S
C1758      C1817   1.476       .  S
C1759      C1778   1.452       .  S
C1759      H1763   1.078       .  S
N1760      C1771   1.346       .  A
N1760     Co2438   2.095       .  S
C1764      N1780   1.346       .  A
C1764      C1776   1.463       .  S
C1764      C1894   1.470       .  S
N1767      C1778   1.358       .  A
C1768      C1913   1.473       .  S
Co1770     N2428   2.095   1_545  S
N1774      C2404   1.352       .  A
Cl1777    Co2401   2.460   1_545  S
Cl1777    Co2403   2.445   1_545  S
C1778      C1782   1.484       .  S
C1781      H1788   1.086       .  S
C1781      C1782   1.388       .  A
C1781      C1786   1.401       .  A
C1782      C1783   1.415       .  A
C1783      C1790   1.507       .  S
C1783      C1784   1.407       .  A
C1784      H1789   1.080       .  S
C1784      C1785   1.415       .  A
C1785      C1786   1.441       .  A
C1786      C1787   1.499       .  S
C1787      H1791   1.109       .  S
C1787      H1792   1.112       .  S
C1787      H1793   1.094       .  S
C1790      H1794   1.106       .  S
C1790      H1795   1.111       .  S
C1790      H1796   1.111       .  S
C1797      H1804   1.074       .  S
C1797      C1798   1.416       .  A
C1797      C1802   1.404       .  A
C1798      C1799   1.433       .  A
C1799      C1806   1.510       .  S
C1799      C1800   1.412       .  A
C1800      H1805   1.084       .  S
C1800      C1801   1.405       .  A
C1801      C1802   1.414       .  A
C1802      C1803   1.508       .  S
C1803      H1807   1.111       .  S
C1803      H1808   1.108       .  S
C1803      H1809   1.110       .  S
C1806      H1810   1.102       .  S
C1806      H1811   1.109       .  S
C1806      H1812   1.111       .  S
C1813      H1820   1.074       .  S
C1813      C1814   1.427       .  A
C1813      C1818   1.403       .  A
C1814      C1815   1.442       .  A
C1815      C1822   1.509       .  S
C1815      C1816   1.408       .  A
C1816      H1821   1.085       .  S
C1816      C1817   1.392       .  A
C1817      C1818   1.402       .  A
C1818      C1819   1.510       .  S
C1819      H1823   1.110       .  S
C1819      H1824   1.110       .  S
C1819      H1825   1.110       .  S
C1822      H1826   1.093       .  S
C1822      H1827   1.111       .  S
C1822      H1828   1.109       .  S
C1829      H1836   1.083       .  S
C1829      C1830   1.414       .  A
C1829      C1834   1.403       .  A
C1830      C1831   1.440       .  A
C1831      C1838   1.512       .  S
C1831      C1832   1.399       .  A
C1832      H1837   1.085       .  S
C1832      C1833   1.389       .  A
C1833      C1834   1.411       .  A
C1834      C1835   1.507       .  S
C1835      H1839   1.110       .  S
C1835      H1840   1.111       .  S
C1835      H1841   1.109       .  S
C1838      H1842   1.081       .  S
C1838      H1843   1.104       .  S
C1838      H1844   1.111       .  S
C1845      H1852   1.069       .  S
C1845      C1846   1.415       .  A
C1845      C1850   1.409       .  A
C1846      C1847   1.443       .  A
C1847      C1854   1.518       .  S
C1847      C1848   1.403       .  A
C1848      H1853   1.081       .  S
C1848      C1849   1.396       .  A
C1849      C1850   1.415       .  A
C1850      C1851   1.508       .  S
C1851      H1855   1.111       .  S
C1851      H1856   1.110       .  S
C1851      H1857   1.110       .  S
C1854      H1858   1.108       .  S
C1854      H1859   1.098       .  S
C1854      H1860   1.112       .  S
C1861      H1868   1.085       .  S
C1861      C1862   1.385       .  A
C1861      C1866   1.403       .  A
C1862      C1863   1.398       .  A
C1863      C1870   1.509       .  S
C1863      C1864   1.401       .  A
C1864      H1869   1.073       .  S
C1864      C1865   1.428       .  A
C1865      C1866   1.451       .  A
C1866      C1867   1.510       .  S
C1867      H1871   1.109       .  S
C1867      H1872   1.111       .  S
C1867      H1873   1.086       .  S
C1870      H1874   1.110       .  S
C1870      H1875   1.110       .  S
C1870      H1876   1.111       .  S
C1877      H1884   1.074       .  S
C1877      C1878   1.422       .  A
C1877      C1882   1.410       .  A
C1878      C1879   1.429       .  A
C1879      C1886   1.514       .  S
C1879      C1880   1.399       .  A
C1880      H1885   1.081       .  S
C1880      C1881   1.416       .  A
C1881      C1882   1.429       .  A
C1882      C1883   1.510       .  S
C1883      H1887   1.111       .  S
C1883      H1888   1.100       .  S
C1883      H1889   1.103       .  S
C1886      H1890   1.106       .  S
C1886      H1891   1.104       .  S
C1886      H1892   1.111       .  S
C1893      H1900   1.085       .  S
C1893      C1894   1.401       .  A
C1893      C1898   1.398       .  A
C1894      C1895   1.405       .  A
C1895      C1902   1.510       .  S
C1895      C1896   1.395       .  A
C1896      H1901   1.077       .  S
C1896      C1897   1.423       .  A
C1897      C1898   1.430       .  A
C1898      C1899   1.514       .  S
C1899      H1903   1.111       .  S
C1899      H1904   1.110       .  S
C1899      H1905   1.103       .  S
C1902      H1906   1.106       .  S
C1902      H1907   1.110       .  S
C1902      H1908   1.111       .  S
C1909      H1916   1.070       .  S
C1909      C1910   1.421       .  A
C1909      C1914   1.397       .  A
C1910      C1911   1.452       .  A
C1911      C1918   1.519       .  S
C1911      C1912   1.410       .  A
C1912      H1917   1.085       .  S
C1912      C1913   1.393       .  A
C1913      C1914   1.401       .  A
C1914      C1915   1.511       .  S
C1915      H1919   1.111       .  S
C1915      H1920   1.105       .  S
C1915      H1921   1.111       .  S
C1918      H1922   1.106       .  S
C1918      H1923   1.104       .  S
C1918      H1924   1.111       .  S
C1925      H1932   1.083       .  S
C1925      C1926   1.392       .  A
C1925      C1930   1.404       .  A
C1926      C1927   1.406       .  A
C1927      C1934   1.508       .  S
C1927      C1928   1.402       .  A
C1928      H1933   1.084       .  S
C1928      C1929   1.429       .  A
C1929      C1930   1.452       .  A
C1930      C1931   1.517       .  S
C1931      H1935   1.111       .  S
C1931      H1936   1.104       .  S
C1931      H1937   1.100       .  S
C1934      H1938   1.111       .  S
C1934      H1939   1.110       .  S
C1934      H1940   1.111       .  S
C1941      H1948   1.085   1_556  S
C1941      C1942   1.385       .  A
C1941      C1946   1.403   1_556  A
C1942      C1943   1.401       .  A
C1943      C1950   1.509       .  S
C1943      C1944   1.406       .  A
C1944      H1949   1.075       .  S
C1944      C1945   1.428       .  A
C1945      C1946   1.446   1_556  A
C1947      H1951   1.111       .  S
C1947      H1952   1.077       .  S
C1950      H1954   1.110       .  S
C1950      H1955   1.110       .  S
C1950      H1956   1.110       .  S
C1957      H1964   1.075       .  S
C1958      C1959   1.433       .  A
C1959      C1966   1.509       .  S
C1959      C1960   1.409       .  A
C1960      H1965   1.085       .  S
C1960      C1961   1.403       .  A
C1961      C1962   1.402   1_556  A
C1963      H1967   1.111       .  S
C1963      H1968   1.107       .  S
C1966      H1970   1.111       .  S
C1966      H1971   1.099       .  S
C1966      H1972   1.110       .  S
C1973      C1974   1.420       .  A
C1973      C1978   1.411       .  A
C1974      C1975   1.441       .  A
C1975      C1982   1.512   1_556  S
C1975      C1976   1.400       .  A
C1976      H1981   1.080       .  S
C1976      C1977   1.394       .  A
C1977      C1978   1.412       .  A
C1978      C1979   1.507       .  S
C1979      H1985   1.110       .  S
C1982      H1986   1.104       .  S
C1982      H1987   1.107   1_554  S
C1982      H1988   1.110       .  S
C1989      H1996   1.078       .  S
C1989      C1990   1.425       .  A
C1989      C1994   1.400       .  A
C1990      C1991   1.431       .  A
C1991      C1998   1.511       .  S
C1991      C1992   1.400       .  A
C1992      H1997   1.084       .  S
C1992      C1993   1.418       .  A
C1993      C1994   1.435       .  A
C1994      C1995   1.522       .  S
C1995      H1999   1.111       .  S
C1995      H2000   1.104       .  S
C1995      H2001   1.100       .  S
C1998      H2002   1.106       .  S
C1998      H2003   1.102       .  S
C1998      H2004   1.108       .  S
C2005      C2613   1.598   1_554  S
C2005      C2626   1.587   1_554  S
C2005      C2642   1.577   1_554  S
C2005      C2327   1.573       .  S
C2006      C2231   1.548       .  S
C2006      C2244   1.595       .  S
C2006      C2263   1.601       .  S
C2006      C2324   1.595       .  S
C2007      C2164   1.574       .  S
C2007      C2180   1.596       .  S
C2007      C2199   1.607       .  S
C2007      C2215   1.574       .  S
C2008      C2119   1.586       .  S
C2008      C2132   1.584       .  S
C2008      C2148   1.583       .  S
C2008      C2212   1.581       .  S
C2009      N2027   1.341       .  A
C2009      C2046   1.462       .  S
C2009      C2167   1.468       .  S
N2010      N2027   1.319       .  A
N2010      N2032   1.321       .  A
N2010     Co2047   2.068       .  S
C2011      N2036   1.339       .  A
C2011      C2049   1.467       .  S
C2011      H2056   1.080       .  S
H2012      C2053   1.081       .  S
C2013      N2037   1.336       .  A
C2013      C2017   1.450       .  S
C2013      H2042   1.082       .  S
Co2014     N2032   2.084       .  S
Co2014     N2022   2.105       .  S
Co2014     N2054   2.083       .  S
N2015      C2053   1.341       .  A
N2015     Co2016   2.088       .  S
Co2016     N2019   2.085       .  S
Co2016     N2023   2.078       .  S
C2017      N2055   1.350       .  A
C2017      C2196   1.464       .  S
N2018      N2025   1.318       .  A
N2018      N2048   1.328       .  A
N2019      N2037   1.320       .  A
N2019      N2055   1.325       .  A
N2020      C2049   1.349       .  A
N2020      N2030   1.324       .  A
H2021      C2046   1.082       .  S
N2022      N2043   1.330       .  A
N2023      N2041   1.320       .  A
N2023      N2028   1.323       .  A
C2024      N2028   1.347       .  A
C2024      C2052   1.465       .  S
C2024      C2295   1.478       .  S
N2025      C2040   1.336       .  A
C2026      N2054   1.337       .  A
C2026      C2029   1.451       .  S
C2026      H2060   1.082       .  S
C2029      N2050   1.352       .  A
C2029      C2276   1.470       .  S
N2030      N2036   1.318       .  A
N2031      C2057   1.343       .  A
N2031     Co2381   2.095   1_554  S
N2032      C2046   1.343       .  A
N2033      N2061   1.330       .  A
N2033     Co2385   2.099   1_554  S
H2034      C2057   1.081       .  S
H2035      C2386   1.079   1_554  S
N2037     Co2051   2.072       .  S
N2038      N2050   1.327       .  A
N2038      N2054   1.322       .  A
N2038     Co2047   2.089       .  S
C2039      C2070   1.481       .  S
C2040      C2059   1.464       .  S
C2040      H2044   1.080       .  S
N2041      C2052   1.338       .  A
N2041     Co2051   2.083       .  S
C2045      C2057   1.463       .  S
C2045      C2082   1.483       .  S
Co2047     N2365   2.095       .  S
N2048      C2059   1.353       .  A
C2049      C2183   1.490       .  S
Co2051     N2367   2.099       .  S
C2052      H2369   1.079       .  S
C2059      C2311   1.490       .  S
C2062      N2080   1.349       .  A
C2062      C2099   1.464       .  S
C2062      C2260   1.485       .  S
N2063      N2080   1.325       .  A
N2063      N2085   1.318       .  A
C2064      N2089   1.334       .  A
C2064      C2102   1.453       .  S
C2064      H2109   1.081       .  S
H2065      C2106   1.081       .  S
C2066      N2090   1.347       .  A
C2066      H2095   1.081       .  S
Co2067     N2075   2.092       .  S
Co2067     N2107   2.107       .  S
Co2067     N2083   2.088       .  S
N2068      C2106   1.343       .  A
N2068      N2075   1.321       .  A
N2068     Co2069   2.089       .  S
Co2069     N2072   2.096       .  S
Co2069     N2089   2.075       .  S
N2071      N2078   1.320       .  A
N2071      N2101   1.328       .  A
N2071     Co2104   2.106       .  S
N2072      N2108   1.326       .  A
N2073      C2102   1.353       .  A
N2073      N2083   1.326       .  A
H2074      C2099   1.081       .  S
N2075      N2096   1.324       .  A
N2076      N2094   1.318       .  A
N2076      N2081   1.325       .  A
C2077      N2081   1.351       .  A
C2077      C2105   1.466       .  S
C2077      C2135   1.495       .  S
N2078      C2093   1.334       .  A
N2078     Co2100   2.064       .  S
C2079      N2107   1.349       .  A
C2079      H2113   1.081       .  S
C2082      N2103   1.350       .  A
N2083      N2089   1.321       .  A
N2084      C2110   1.338       .  A
N2084      N2086   1.319       .  A
N2084     Co2100   2.071       .  S
N2085      C2099   1.337       .  A
N2086      N2114   1.318       .  A
N2086     Co2104   2.068       .  S
H2087      C2110   1.079       .  S
H2088      C2105   1.081       .  S
N2090     Co2104   2.099       .  S
N2091      N2103   1.326       .  A
N2091     Co2100   2.087       .  S
C2092      N2096   1.349       .  A
C2092      C2106   1.462       .  S
C2092      C2151   1.476       .  S
C2093      C2112   1.452       .  S
C2093      H2097   1.078       .  S
N2094      C2105   1.346       .  A
C2098      N2114   1.346       .  A
C2098      C2110   1.463       .  S
C2098      C2228   1.470       .  S
N2101      C2112   1.358       .  A
C2102      C2247   1.473       .  S
C2112      C2116   1.484       .  S
C2115      H2122   1.086       .  S
C2115      C2116   1.388       .  A
C2115      C2120   1.401       .  A
C2116      C2117   1.415       .  A
C2117      C2124   1.507       .  S
C2117      C2118   1.407       .  A
C2118      H2123   1.080       .  S
C2118      C2119   1.415       .  A
C2119      C2120   1.441       .  A
C2120      C2121   1.499       .  S
C2121      H2125   1.109       .  S
C2121      H2126   1.112       .  S
C2121      H2127   1.094       .  S
C2124      H2128   1.106       .  S
C2124      H2129   1.111       .  S
C2124      H2130   1.111       .  S
C2131      H2138   1.074       .  S
C2131      C2132   1.416       .  A
C2131      C2136   1.404       .  A
C2132      C2133   1.433       .  A
C2133      C2140   1.510       .  S
C2133      C2134   1.412       .  A
C2134      H2139   1.084       .  S
C2134      C2135   1.405       .  A
C2135      C2136   1.414       .  A
C2136      C2137   1.508       .  S
C2137      H2141   1.111       .  S
C2137      H2142   1.108       .  S
C2137      H2143   1.110       .  S
C2140      H2144   1.102       .  S
C2140      H2145   1.109       .  S
C2140      H2146   1.111       .  S
C2147      H2154   1.074       .  S
C2147      C2148   1.427       .  A
C2147      C2152   1.403       .  A
C2148      C2149   1.442       .  A
C2149      C2156   1.509       .  S
C2149      C2150   1.408       .  A
C2150      H2155   1.085       .  S
C2150      C2151   1.392       .  A
C2151      C2152   1.402       .  A
C2152      C2153   1.510       .  S
C2153      H2157   1.110       .  S
C2153      H2158   1.110       .  S
C2153      H2159   1.110       .  S
C2156      H2160   1.093       .  S
C2156      H2161   1.111       .  S
C2156      H2162   1.109       .  S
C2163      H2170   1.083       .  S
C2163      C2164   1.414       .  A
C2163      C2168   1.403       .  A
C2164      C2165   1.440       .  A
C2165      C2172   1.512       .  S
C2165      C2166   1.399       .  A
C2166      H2171   1.085       .  S
C2166      C2167   1.389       .  A
C2167      C2168   1.411       .  A
C2168      C2169   1.507       .  S
C2169      H2173   1.110       .  S
C2169      H2174   1.111       .  S
C2169      H2175   1.109       .  S
C2172      H2176   1.081       .  S
C2172      H2177   1.104       .  S
C2172      H2178   1.111       .  S
C2179      H2186   1.069       .  S
C2179      C2180   1.415       .  A
C2179      C2184   1.409       .  A
C2180      C2181   1.443       .  A
C2181      C2188   1.518       .  S
C2181      C2182   1.403       .  A
C2182      H2187   1.081       .  S
C2182      C2183   1.396       .  A
C2183      C2184   1.415       .  A
C2184      C2185   1.508       .  S
C2185      H2189   1.111       .  S
C2185      H2190   1.110       .  S
C2185      H2191   1.110       .  S
C2188      H2192   1.108       .  S
C2188      H2193   1.098       .  S
C2188      H2194   1.112       .  S
C2195      H2202   1.085       .  S
C2195      C2196   1.385       .  A
C2195      C2200   1.403       .  A
C2196      C2197   1.398       .  A
C2197      C2204   1.509       .  S
C2197      C2198   1.401       .  A
C2198      H2203   1.073       .  S
C2198      C2199   1.428       .  A
C2199      C2200   1.451       .  A
C2200      C2201   1.510       .  S
C2201      H2205   1.109       .  S
C2201      H2206   1.111       .  S
C2201      H2207   1.086       .  S
C2204      H2208   1.110       .  S
C2204      H2209   1.110       .  S
C2204      H2210   1.111       .  S
C2211      H2218   1.074       .  S
C2211      C2212   1.422       .  A
C2211      C2216   1.410       .  A
C2212      C2213   1.429       .  A
C2213      C2220   1.514       .  S
C2213      C2214   1.399       .  A
C2214      H2219   1.081       .  S
C2214      C2215   1.416       .  A
C2215      C2216   1.429       .  A
C2216      C2217   1.510       .  S
C2217      H2221   1.111       .  S
C2217      H2222   1.100       .  S
C2217      H2223   1.103       .  S
C2220      H2224   1.106       .  S
C2220      H2225   1.104       .  S
C2220      H2226   1.111       .  S
C2227      H2234   1.085       .  S
C2227      C2228   1.401       .  A
C2227      C2232   1.398       .  A
C2228      C2229   1.405       .  A
C2229      C2236   1.510       .  S
C2229      C2230   1.395       .  A
C2230      H2235   1.077       .  S
C2230      C2231   1.423       .  A
C2231      C2232   1.430       .  A
C2232      C2233   1.514       .  S
C2233      H2237   1.111       .  S
C2233      H2238   1.110       .  S
C2233      H2239   1.103       .  S
C2236      H2240   1.106       .  S
C2236      H2241   1.110       .  S
C2236      H2242   1.111       .  S
C2243      H2250   1.070       .  S
C2243      C2244   1.421       .  A
C2243      C2248   1.397       .  A
C2244      C2245   1.452       .  A
C2245      C2252   1.519       .  S
C2245      C2246   1.410       .  A
C2246      H2251   1.085       .  S
C2246      C2247   1.393       .  A
C2247      C2248   1.401       .  A
C2248      C2249   1.511       .  S
C2249      H2253   1.111       .  S
C2249      H2254   1.105       .  S
C2249      H2255   1.111       .  S
C2252      H2256   1.106       .  S
C2252      H2257   1.104       .  S
C2252      H2258   1.111       .  S
C2259      H2266   1.083       .  S
C2259      C2260   1.392       .  A
C2259      C2264   1.404       .  A
C2260      C2261   1.406       .  A
C2261      C2268   1.508       .  S
C2261      C2262   1.402       .  A
C2262      H2267   1.084       .  S
C2262      C2263   1.429       .  A
C2263      C2264   1.452       .  A
C2264      C2265   1.517       .  S
C2265      H2269   1.111       .  S
C2265      H2270   1.104       .  S
C2265      H2271   1.100       .  S
C2268      H2272   1.111       .  S
C2268      H2273   1.110       .  S
C2268      H2274   1.111       .  S
C2275      H2282   1.085       .  S
C2275      C2276   1.385       .  A
C2275      C2280   1.403       .  A
C2276      C2277   1.401       .  A
C2277      C2284   1.509       .  S
C2277      C2278   1.406       .  A
C2278      H2283   1.075       .  S
C2278      C2279   1.428       .  A
C2279      C2339   1.598       .  S
C2279      C2280   1.446       .  A
C2280      C2615   1.501       .  S
C2281      C2614   1.501       .  S
C2281      H2285   1.111       .  S
C2281      H2286   1.077       .  S
C2281      H2621   1.111       .  S
C2284      H2288   1.110       .  S
C2284      H2289   1.110       .  S
C2284      H2290   1.110       .  S
H2287      C2615   1.111       .  S
C2291      H2298   1.075       .  S
C2291      C2626   1.424   1_554  A
C2291      C2630   1.394       .  A
C2292      C2339   1.587       .  S
C2292      C2625   1.424       .  A
C2292      C2293   1.433       .  A
C2293      C2300   1.509       .  S
C2293      C2294   1.409       .  A
C2294      H2299   1.085       .  S
C2294      C2295   1.403       .  A
C2295      C2296   1.402       .  A
C2296      C2631   1.511       .  S
C2296      C2625   1.394       .  A
C2297      C2630   1.511       .  S
C2297      H2301   1.111       .  S
C2297      H2302   1.107       .  S
C2297      H2637   1.110       .  S
C2300      H2304   1.111       .  S
C2300      H2305   1.099       .  S
C2300      H2306   1.110       .  S
H2303      C2631   1.110       .  S
C2307      H2648   1.077       .  S
C2307      C2308   1.420       .  A
C2307      C2312   1.411       .  A
C2308      C2339   1.577       .  S
C2308      C2309   1.441       .  A
C2309      C2316   1.512       .  S
C2309      C2310   1.400       .  A
C2310      H2315   1.080       .  S
C2310      C2311   1.394       .  A
C2311      C2312   1.412       .  A
C2312      C2313   1.507       .  S
C2313      H2651   1.111       .  S
C2313      H2652   1.109       .  S
C2313      H2319   1.110       .  S
H2314      C2641   1.077       .  S
C2316      H2320   1.104       .  S
C2316      H2321   1.107       .  S
C2316      H2322   1.110       .  S
H2317      C2647   1.111       .  S
H2318      C2647   1.109       .  S
C2323      H2330   1.078       .  S
C2323      C2324   1.425       .  A
C2323      C2328   1.400       .  A
C2324      C2325   1.431       .  A
C2325      C2332   1.511       .  S
C2325      C2326   1.400       .  A
C2326      H2331   1.084       .  S
C2326      C2327   1.418       .  A
C2327      C2328   1.435       .  A
C2328      C2329   1.522       .  S
C2329      H2333   1.111       .  S
C2329      H2334   1.104       .  S
C2329      H2335   1.100       .  S
C2332      H2336   1.106       .  S
C2332      H2337   1.102       .  S
C2332      H2338   1.108       .  S
C2339      C2661   1.573       .  S
C2340      C2565   1.548       .  S
C2340      C2578   1.595       .  S
C2340      C2597   1.601       .  S
C2340      C2658   1.595       .  S
C2341      C2498   1.574       .  S
C2341      C2514   1.596       .  S
C2341      C2533   1.607       .  S
C2341      C2549   1.574       .  S
C2342      C2453   1.586       .  S
C2342      C2466   1.584       .  S
C2342      C2482   1.583       .  S
C2342      C2546   1.581       .  S
C2343      N2361   1.341       .  A
C2343      C2380   1.462       .  S
C2343      C2501   1.468       .  S
N2344      N2361   1.319       .  A
N2344      N2366   1.321       .  A
N2344     Co2381   2.068       .  S
C2345      N2370   1.339       .  A
C2345      C2383   1.467       .  S
C2345      H2390   1.080       .  S
H2346      C2387   1.081       .  S
C2347      N2371   1.336       .  A
C2347      C2351   1.450       .  S
C2347      H2376   1.082       .  S
Co2348     N2366   2.084       .  S
Co2348     N2356   2.105       .  S
Co2348     N2388   2.083       .  S
N2349      C2387   1.341       .  A
N2349     Co2350   2.088       .  S
Co2350     N2353   2.085       .  S
Co2350     N2357   2.078       .  S
C2351      N2389   1.350       .  A
C2351      C2530   1.464       .  S
N2352      N2359   1.318       .  A
N2352      N2382   1.328       .  A
N2353      N2371   1.320       .  A
N2353      N2389   1.325       .  A
N2354      C2383   1.349       .  A
N2354      N2364   1.324       .  A
H2355      C2380   1.082       .  S
N2356      N2377   1.330       .  A
N2357      N2375   1.320       .  A
N2357      N2362   1.323       .  A
C2358      N2362   1.347       .  A
C2358      C2386   1.465       .  S
C2358      C2629   1.478       .  S
N2359      C2374   1.336       .  A
C2360      N2388   1.337       .  A
C2360      C2363   1.451       .  S
C2360      H2394   1.082       .  S
C2363      N2384   1.352       .  A
C2363      C2610   1.470       .  S
N2364      N2370   1.318       .  A
N2365      C2391   1.343       .  A
N2366      C2380   1.343       .  A
N2367      N2395   1.330       .  A
H2368      C2391   1.081       .  S
N2371     Co2385   2.072       .  S
N2372      N2384   1.327       .  A
N2372      N2388   1.322       .  A
N2372     Co2381   2.089       .  S
C2373      C2404   1.481       .  S
C2374      C2393   1.464       .  S
C2374      H2378   1.080       .  S
N2375      C2386   1.338       .  A
N2375     Co2385   2.083       .  S
C2379      C2391   1.463       .  S
C2379      C2416   1.483       .  S
N2382      C2393   1.353       .  A
C2383      C2517   1.490       .  S
C2393      C2645   1.490       .  S
C2396      N2414   1.349       .  A
C2396      C2433   1.464       .  S
C2396      C2594   1.485       .  S
N2397      N2414   1.325       .  A
N2397      N2419   1.318       .  A
C2398      N2423   1.334       .  A
C2398      C2436   1.453       .  S
C2398      H2443   1.081       .  S
H2399      C2440   1.081       .  S
C2400      N2424   1.347       .  A
C2400      H2429   1.081       .  S
Co2401     N2409   2.092       .  S
Co2401     N2441   2.107       .  S
Co2401     N2417   2.088       .  S
N2402      C2440   1.343       .  A
N2402      N2409   1.321       .  A
N2402     Co2403   2.089       .  S
Co2403     N2406   2.096       .  S
Co2403     N2423   2.075       .  S
N2405      N2412   1.320       .  A
N2405      N2435   1.328       .  A
N2405     Co2438   2.106       .  S
N2406      N2442   1.326       .  A
N2407      C2436   1.353       .  A
N2407      N2417   1.326       .  A
H2408      C2433   1.081       .  S
N2409      N2430   1.324       .  A
N2410      N2428   1.318       .  A
N2410      N2415   1.325       .  A
C2411      N2415   1.351       .  A
C2411      C2439   1.466       .  S
C2411      C2469   1.495       .  S
N2412      C2427   1.334       .  A
N2412     Co2434   2.064       .  S
C2413      N2441   1.349       .  A
C2413      H2447   1.081       .  S
C2416      N2437   1.350       .  A
N2417      N2423   1.321       .  A
N2418      C2444   1.338       .  A
N2418      N2420   1.319       .  A
N2418     Co2434   2.071       .  S
N2419      C2433   1.337       .  A
N2420      N2448   1.318       .  A
N2420     Co2438   2.068       .  S
H2421      C2444   1.079       .  S
H2422      C2439   1.081       .  S
N2424     Co2438   2.099       .  S
N2425      N2437   1.326       .  A
N2425     Co2434   2.087       .  S
C2426      N2430   1.349       .  A
C2426      C2440   1.462       .  S
C2426      C2485   1.476       .  S
C2427      C2446   1.452       .  S
C2427      H2431   1.078       .  S
N2428      C2439   1.346       .  A
C2432      N2448   1.346       .  A
C2432      C2444   1.463       .  S
C2432      C2562   1.470       .  S
N2435      C2446   1.358       .  A
C2436      C2581   1.473       .  S
C2446      C2450   1.484       .  S
C2449      H2456   1.086       .  S
C2449      C2450   1.388       .  A
C2449      C2454   1.401       .  A
C2450      C2451   1.415       .  A
C2451      C2458   1.507       .  S
C2451      C2452   1.407       .  A
C2452      H2457   1.080       .  S
C2452      C2453   1.415       .  A
C2453      C2454   1.441       .  A
C2454      C2455   1.499       .  S
C2455      H2459   1.109       .  S
C2455      H2460   1.112       .  S
C2455      H2461   1.094       .  S
C2458      H2462   1.106       .  S
C2458      H2463   1.111       .  S
C2458      H2464   1.111       .  S
C2465      H2472   1.074       .  S
C2465      C2466   1.416       .  A
C2465      C2470   1.404       .  A
C2466      C2467   1.433       .  A
C2467      C2474   1.510       .  S
C2467      C2468   1.412       .  A
C2468      H2473   1.084       .  S
C2468      C2469   1.405       .  A
C2469      C2470   1.414       .  A
C2470      C2471   1.508       .  S
C2471      H2475   1.111       .  S
C2471      H2476   1.108       .  S
C2471      H2477   1.110       .  S
C2474      H2478   1.102       .  S
C2474      H2479   1.109       .  S
C2474      H2480   1.111       .  S
C2481      H2488   1.074       .  S
C2481      C2482   1.427       .  A
C2481      C2486   1.403       .  A
C2482      C2483   1.442       .  A
C2483      C2490   1.509       .  S
C2483      C2484   1.408       .  A
C2484      H2489   1.085       .  S
C2484      C2485   1.392       .  A
C2485      C2486   1.402       .  A
C2486      C2487   1.510       .  S
C2487      H2491   1.110       .  S
C2487      H2492   1.110       .  S
C2487      H2493   1.110       .  S
C2490      H2494   1.093       .  S
C2490      H2495   1.111       .  S
C2490      H2496   1.109       .  S
C2497      H2504   1.083       .  S
C2497      C2498   1.414       .  A
C2497      C2502   1.403       .  A
C2498      C2499   1.440       .  A
C2499      C2506   1.512       .  S
C2499      C2500   1.399       .  A
C2500      H2505   1.085       .  S
C2500      C2501   1.389       .  A
C2501      C2502   1.411       .  A
C2502      C2503   1.507       .  S
C2503      H2507   1.110       .  S
C2503      H2508   1.111       .  S
C2503      H2509   1.109       .  S
C2506      H2510   1.081       .  S
C2506      H2511   1.104       .  S
C2506      H2512   1.111       .  S
C2513      H2520   1.069       .  S
C2513      C2514   1.415       .  A
C2513      C2518   1.409       .  A
C2514      C2515   1.443       .  A
C2515      C2522   1.518       .  S
C2515      C2516   1.403       .  A
C2516      H2521   1.081       .  S
C2516      C2517   1.396       .  A
C2517      C2518   1.415       .  A
C2518      C2519   1.508       .  S
C2519      H2523   1.111       .  S
C2519      H2524   1.110       .  S
C2519      H2525   1.110       .  S
C2522      H2526   1.108       .  S
C2522      H2527   1.098       .  S
C2522      H2528   1.112       .  S
C2529      H2536   1.085       .  S
C2529      C2530   1.385       .  A
C2529      C2534   1.403       .  A
C2530      C2531   1.398       .  A
C2531      C2538   1.509       .  S
C2531      C2532   1.401       .  A
C2532      H2537   1.073       .  S
C2532      C2533   1.428       .  A
C2533      C2534   1.451       .  A
C2534      C2535   1.510       .  S
C2535      H2539   1.109       .  S
C2535      H2540   1.111       .  S
C2535      H2541   1.086       .  S
C2538      H2542   1.110       .  S
C2538      H2543   1.110       .  S
C2538      H2544   1.111       .  S
C2545      H2552   1.074       .  S
C2545      C2546   1.422       .  A
C2545      C2550   1.410       .  A
C2546      C2547   1.429       .  A
C2547      C2554   1.514       .  S
C2547      C2548   1.399       .  A
C2548      H2553   1.081       .  S
C2548      C2549   1.416       .  A
C2549      C2550   1.429       .  A
C2550      C2551   1.510       .  S
C2551      H2555   1.111       .  S
C2551      H2556   1.100       .  S
C2551      H2557   1.103       .  S
C2554      H2558   1.106       .  S
C2554      H2559   1.104       .  S
C2554      H2560   1.111       .  S
C2561      H2568   1.085       .  S
C2561      C2562   1.401       .  A
C2561      C2566   1.398       .  A
C2562      C2563   1.405       .  A
C2563      C2570   1.510       .  S
C2563      C2564   1.395       .  A
C2564      H2569   1.077       .  S
C2564      C2565   1.423       .  A
C2565      C2566   1.430       .  A
C2566      C2567   1.514       .  S
C2567      H2571   1.111       .  S
C2567      H2572   1.110       .  S
C2567      H2573   1.103       .  S
C2570      H2574   1.106       .  S
C2570      H2575   1.110       .  S
C2570      H2576   1.111       .  S
C2577      H2584   1.070       .  S
C2577      C2578   1.421       .  A
C2577      C2582   1.397       .  A
C2578      C2579   1.452       .  A
C2579      C2586   1.519       .  S
C2579      C2580   1.410       .  A
C2580      H2585   1.085       .  S
C2580      C2581   1.393       .  A
C2581      C2582   1.401       .  A
C2582      C2583   1.511       .  S
C2583      H2587   1.111       .  S
C2583      H2588   1.105       .  S
C2583      H2589   1.111       .  S
C2586      H2590   1.106       .  S
C2586      H2591   1.104       .  S
C2586      H2592   1.111       .  S
C2593      H2600   1.083       .  S
C2593      C2594   1.392       .  A
C2593      C2598   1.404       .  A
C2594      C2595   1.406       .  A
C2595      C2602   1.508       .  S
C2595      C2596   1.402       .  A
C2596      H2601   1.084       .  S
C2596      C2597   1.429       .  A
C2597      C2598   1.452       .  A
C2598      C2599   1.517       .  S
C2599      H2603   1.111       .  S
C2599      H2604   1.104       .  S
C2599      H2605   1.100       .  S
C2602      H2606   1.111       .  S
C2602      H2607   1.110       .  S
C2602      H2608   1.111       .  S
C2609      H2616   1.085   1_556  S
C2609      C2610   1.385       .  A
C2609      C2614   1.403   1_556  A
C2610      C2611   1.401       .  A
C2611      C2618   1.509       .  S
C2611      C2612   1.406       .  A
C2612      H2617   1.075       .  S
C2612      C2613   1.428       .  A
C2613      C2614   1.446   1_556  A
C2615      H2619   1.111       .  S
C2615      H2620   1.077       .  S
C2618      H2622   1.110       .  S
C2618      H2623   1.110       .  S
C2618      H2624   1.110       .  S
C2625      H2632   1.075       .  S
C2626      C2627   1.433       .  A
C2627      C2634   1.509       .  S
C2627      C2628   1.409       .  A
C2628      H2633   1.085       .  S
C2628      C2629   1.403       .  A
C2629      C2630   1.402   1_556  A
C2631      H2635   1.111       .  S
C2631      H2636   1.107       .  S
C2634      H2638   1.111       .  S
C2634      H2639   1.099       .  S
C2634      H2640   1.110       .  S
C2641      C2642   1.420       .  A
C2641      C2646   1.411       .  A
C2642      C2643   1.441       .  A
C2643      C2650   1.512   1_556  S
C2643      C2644   1.400       .  A
C2644      H2649   1.080       .  S
C2644      C2645   1.394       .  A
C2645      C2646   1.412       .  A
C2646      C2647   1.507       .  S
C2647      H2653   1.110       .  S
C2650      H2654   1.104       .  S
C2650      H2655   1.107   1_554  S
C2650      H2656   1.110       .  S
C2657      H2664   1.078       .  S
C2657      C2658   1.425       .  A
C2657      C2662   1.400       .  A
C2658      C2659   1.431       .  A
C2659      C2666   1.511       .  S
C2659      C2660   1.400       .  A
C2660      H2665   1.084       .  S
C2660      C2661   1.418       .  A
C2661      C2662   1.435       .  A
C2662      C2663   1.522       .  S
C2663      H2667   1.111       .  S
C2663      H2668   1.104       .  S
C2663      H2669   1.100       .  S
C2666      H2670   1.106       .  S
C2666      H2671   1.102       .  S
C2666      H2672   1.108       .  S
