geometry optimzed in LAMMPS
_audit_creation_date              2020-11-30 
_audit_creation_method            'lammps2cif' 
_symmetry_space_group_name_H-M    'P1' 
_symmetry_Int_Tables_number       1 
_symmetry_cell_setting            triclinic 
loop_ 
_symmetry_equiv_pos_as_xyz 
  x,y,z 
_cell_length_a                    36.721169459381294 
_cell_length_b                    36.75946909735699 
_cell_length_c                    47.607709148900526 
_cell_angle_alpha                 90.01027125072176 
_cell_angle_beta                  90.74215370245174 
_cell_angle_gamma                 121.3851347231981 
loop_ 
_atom_site_label 
_atom_site_type_symbol 
_atom_site_fract_x 
_atom_site_fract_y 
_atom_site_fract_z 
_atom_site_charge 
C1          C  0.33310046  0.17307340  0.00679573    -0.01010
C2          C  0.33648300  0.16459371  0.13169920    -0.01010
C3          C  0.15252531  0.34247108  0.37952907    -0.01010
C4          C  0.16628867  0.34256430  0.25471602    -0.01010
C5          C  0.42041085  0.08218520  0.47837576     0.43930
N6          N  0.43683895  0.03432999  0.47703345     0.02820
C7          C  0.13393341  0.06681395  0.44181454    -0.05050
H8          H  0.07738956  0.13282739  0.37415548     0.08320
C9          C  0.45628990  0.47449059  0.34880589    -0.05400
Co10       Co  0.03069259  0.07069229  0.47257665     0.74180
N11         N  0.05405203  0.09799763  0.41296881    -0.24580
Co12       Co  0.05187538  0.03974636  0.40881632     0.74070
C13         C  0.48731582  0.01016361  0.33159289     0.44040
N14         N  0.39888916  0.44551712  0.41599318     0.02440
N15         N  0.00943671  0.02021460  0.37467719     0.02550
N16         N  0.12143842  0.08786670  0.48334123    -0.45430
H17         H  0.49076504  0.13641018  0.47636065     0.08300
N18         N  0.04624019  0.10897831  0.43758640     0.02830
N19         N  0.04858295  0.48092489  0.40716563     0.02570
C20         C  0.06360020  0.43177635  0.40785132     0.44180
N21         N  0.39132785  0.45785869  0.44018609    -0.24040
C22         C  0.03289237  0.03850644  0.03332164    -0.04960
N23         N  0.40408085  0.03980463  0.47885700    -0.45140
N24         N  0.08090627  0.47443215  0.40642648    -0.45370
C25         C  0.50303357  0.50243859  0.05055084     0.43950
N26         N  0.08693689  0.07021572  0.46688911     0.02820
N27         N  0.43117109  0.41931992  0.47083609    -0.24060
N28         N  0.47386667  0.07053134  0.47610293    -0.24550
N29         N  0.43844099  0.40640650  0.44685605     0.02460
H30         H  0.41048739  0.39027295  0.01121056     0.08350
H31         H  0.99294281  0.37880675  0.40896647     0.08380
N32         N  0.09401874  0.05854155  0.44235626    -0.24600
N33         N  0.47279750  0.48340599  0.37511499    -0.24210
N34         N  0.47653985  0.49525110  0.00875016     0.02820
C35         C  0.06507543  0.16377989  0.41221872     0.44220
C36         C  0.35194537  0.45147852  0.43921645    -0.05460
N37         N  0.01130010  0.44493673  0.40821841    -0.24210
H38         H  0.42833089  0.44481244  0.34205827     0.08370
N39         N  0.05316444  0.14800010  0.43811687    -0.45430
H40         H  0.33598091  0.45615210  0.45653811     0.08360
C41         C  0.41934258  0.35411850  0.47491697     0.44060
C42         C  0.46670678  0.10283903  0.47682794    -0.04960
Co43       Co  0.43352273  0.47645097  0.47454785     0.73820
N44         N  0.36556196  0.42926486  0.39852230    -0.45150
C45         C  0.15219134  0.08621096  0.46894815     0.44320
N46         N  0.46868798  0.47726582  0.03391463    -0.45140
Co47       Co  0.45477514  0.44445458  0.41106740     0.73890
C48         C  0.01754829  0.41217691  0.40826733    -0.05470
C49         C  0.06644257  0.13101218  0.39538444    -0.05030
N50         N  0.01375101  0.03133062  0.00791351    -0.24560
N51         N  0.01945707  0.03678958  0.34916073    -0.45320
H52         H  0.14915507  0.06356084  0.42350467     0.08330
C53         C  0.41935565  0.38871783  0.48988651    -0.05440
Cl54       Cl  0.49264924  0.00789163  0.44164149    -0.48450
C55         C  0.33500104  0.43269830  0.41161230     0.44080
H56         H  0.06257130  0.06693520  0.03950520     0.08300
N57         N  0.43140951  0.36723926  0.44831576    -0.45160
C58         C  0.34598156  0.42682537  0.22178845     0.43930
N59         N  0.40019562  0.44864872  0.19535408     0.02820
C60         C  0.09721687  0.48143457  0.23159648    -0.05050
H61         H  0.05574247  0.07202612  0.29096897     0.08320
C62         C  0.06089579  0.14575908  0.19121334    -0.05400
Co63       Co  0.46996792  0.44441628  0.22459590     0.74180
N64         N  0.02218828  0.02439075  0.25851971    -0.24580
Co65       Co  0.06341223  0.04275443  0.22409739     0.74070
C66         C  0.07973114  0.16407302  0.21847134     0.44040
N67         N  0.47520317  0.05978101  0.15648710     0.02440
N68         N  0.06281941  0.09863130  0.21742284     0.02550
N69         N  0.03544320  0.41747232  0.23104985    -0.45430
H70         H  0.38067748  0.41542246  0.25853023     0.08300
N71         N  0.48661273  0.48661534  0.25869113     0.02830
N72         N  0.10308974  0.05880437  0.18971812     0.02570
C73         C  0.15825653  0.07689484  0.16509423     0.44180
N74         N  0.43926074  0.02241167  0.15733022    -0.24040
C75         C  0.44734376  0.36393678  0.18966490    -0.04960
N76         N  0.36052787  0.44030011  0.19564308    -0.45140
N77         N  0.14217473  0.06571360  0.19097795    -0.45370
C78         C  0.42894176  0.34706906  0.16197251     0.43950
N79         N  0.02856254  0.44927345  0.22862558     0.02820
N80         N  0.47850906  0.48449096  0.12525028    -0.24060
N81         N  0.41223418  0.44067159  0.21958855    -0.24550
N82         N  0.01509395  0.02128869  0.12469794     0.02460
H83         H  0.43912992  0.43992520  0.09261097     0.08350
H84         H  0.12764988  0.08809912  0.12592434     0.08380
N85         N  0.06406947  0.48689714  0.22884206    -0.24600
N86         N  0.05208230  0.10571711  0.19237535    -0.24210
N87         N  0.44107360  0.41061219  0.16587638     0.02820
C88         C  0.49135528  0.01117926  0.30057233     0.44220
C89         C  0.40642270  0.02858980  0.15761062    -0.05460
N90         N  0.09241115  0.06594296  0.16456934    -0.24210
H91         H  0.05852181  0.16108232  0.17246492     0.08370
N92         N  0.46758293  0.47733467  0.28342452    -0.45430
H93         H  0.37303145  0.00397084  0.15846692     0.08360
C94         C  0.50381234  0.49905155  0.08162557     0.44060
C95         C  0.38029417  0.42678714  0.23765526    -0.04960
Co96       Co  0.43923873  0.46604677  0.16050195     0.73820
N97         N  0.46865677  0.09203640  0.15625445    -0.45150
C98         C  0.07814757  0.43527026  0.23278460     0.44320
N99         N  0.42527356  0.37744112  0.14851392    -0.45140
Co100      Co  0.03410569  0.06353722  0.15901289     0.73890
C101        C  0.12563646  0.07781733  0.14744585    -0.05470
C102        C  0.02783906  0.04239637  0.28408321    -0.05030
N103        N  0.45327065  0.40306106  0.19031803    -0.24560
N104        N  0.08057060  0.13325917  0.23357947    -0.45320
H105        H  0.13029768  0.50685154  0.23263753     0.08330
C106        C  0.46900495  0.46787916  0.09910860    -0.05440
Cl107      Cl  0.50177155  0.00416950  0.19199460    -0.48450
C108        C  0.42601203  0.07462583  0.15772733     0.44080
H109        H  0.45171285  0.34791402  0.20731966     0.08300
N110        N  0.03081272  0.03144915  0.09897281    -0.45160
C111        C  0.11395727  0.28065338  0.22026261     0.25070
C112        C  0.14684656  0.29743570  0.24107362    -0.23040
C113        C  0.16250604  0.27089738  0.24955779     0.19980
C114        C  0.14049607  0.22763680  0.24248361     0.25020
C115        C  0.10380262  0.21004534  0.22537299    -0.22980
C116        C  0.09188270  0.23731080  0.21336621     0.19920
F117        F  0.05805346  0.22200054  0.19530904    -0.12940
F118        F  0.10321918  0.30559168  0.20581012    -0.15300
F119        F  0.15500459  0.20293347  0.25272634    -0.15300
F120        F  0.19655313  0.28559640  0.26733417    -0.12940
C121        C  0.14328977  0.43001037  0.22935790     0.25070
C122        C  0.10003073  0.41120032  0.23585709    -0.23040
C123        C  0.07814055  0.36962412  0.24637910     0.19980
C124        C  0.09937243  0.34785495  0.25122915     0.25020
C125        C  0.14334912  0.36641614  0.24511009    -0.22980
C126        C  0.16492303  0.40867550  0.23440133     0.19920
F127        F  0.20774738  0.43203859  0.23116230    -0.12940
F128        F  0.16550802  0.46981257  0.21850097    -0.15300
F129        F  0.07681865  0.30848969  0.26273533    -0.15300
F130        F  0.03632210  0.35035703  0.25316846    -0.12940
C131        C  0.26823776  0.39398396  0.20999337     0.25070
C132        C  0.30109041  0.40758295  0.23022562    -0.23040
C133        C  0.29039424  0.39980513  0.25861627     0.19980
C134        C  0.24804313  0.37781608  0.26673316     0.25020
C135        C  0.21432781  0.36604343  0.24681070    -0.22980
C136        C  0.22558359  0.37302355  0.21809286     0.19920
F137        F  0.19503688  0.36038704  0.19772235    -0.12940
F138        F  0.27711735  0.40015465  0.18219817    -0.15300
F139        F  0.24126911  0.36548517  0.29395632    -0.15300
F140        F  0.32088537  0.41279817  0.27903018    -0.12940
C141        C  0.06466226  0.22421118  0.38897058     0.25070
C142        C  0.08510476  0.20950258  0.40636480    -0.23040
C143        C  0.12288373  0.23914671  0.42045509     0.19980
C144        C  0.14291383  0.28263064  0.41443304     0.25020
C145        C  0.12641916  0.29722445  0.39299348    -0.22980
C146        C  0.08412184  0.26776887  0.38326502     0.19920
F147        F  0.06367025  0.27995040  0.36522684    -0.12940
F148        F  0.02621275  0.19625866  0.37696968    -0.15300
F149        F  0.17783408  0.30984197  0.43009681    -0.15300
F150        F  0.14084971  0.22586154  0.43983484    -0.12940
C151        C  0.10254357  0.37188837  0.36681449     0.25070
C152        C  0.12731653  0.36475616  0.38698947    -0.23040
C153        C  0.12542084  0.37579176  0.41527384     0.19980
C154        C  0.10616072  0.39907946  0.42207809     0.25020
C155        C  0.08595229  0.40945555  0.40116082    -0.22980
C156        C  0.08313986  0.39453980  0.37385417     0.19920
F157        F  0.06045402  0.40110054  0.35386692    -0.12940
F158        F  0.09399850  0.35489753  0.34052221    -0.15300
F159        F  0.10693971  0.41118849  0.44912534    -0.15300
F160        F  0.14424756  0.36595333  0.43618745    -0.12940
C161        C  0.22277559  0.40994216  0.40014024     0.25070
C162        C  0.20066415  0.36753194  0.38919166    -0.23040
C163        C  0.22587589  0.34928497  0.38354482     0.19980
C164        C  0.26943433  0.37072109  0.39019403     0.25020
C165        C  0.28973610  0.41120406  0.40266914    -0.22980
C166        C  0.26615245  0.43059264  0.40749460     0.19920
F167        F  0.28575362  0.47080310  0.41820137    -0.12940
F168        F  0.20444877  0.43367539  0.40179094    -0.15300
F169        F  0.29145338  0.35108287  0.38519110    -0.15300
F170        F  0.20816195  0.31001439  0.37161294    -0.12940
C171        C  0.17819244  0.37891298  0.30271940     0.25070
C172        C  0.16069605  0.34037824  0.28715378    -0.23040
C173        C  0.13850531  0.30197986  0.30246475     0.19980
C174        C  0.14107787  0.30220119  0.33154920     0.25020
C175        C  0.15615503  0.34036008  0.34711407    -0.22980
C176        C  0.17605432  0.37889260  0.33183441     0.19920
F177        F  0.19261605  0.41710194  0.34508754    -0.12940
F178        F  0.19916360  0.41726560  0.28979372    -0.15300
F179        F  0.13047254  0.26462537  0.34360866    -0.15300
F180        F  0.11227396  0.26353179  0.29017151    -0.12940
C181        C  0.26224548  0.09582662  0.13655490     0.25070
C182        C  0.29162187  0.13841336  0.14561049    -0.23040
C183        C  0.27725367  0.15507412  0.16679368     0.19980
C184        C  0.23382821  0.13488211  0.17300129     0.25020
C185        C  0.20408244  0.09663135  0.15954745    -0.22980
C186        C  0.21876513  0.07602894  0.14260675     0.19920
F187        F  0.19083853  0.03714264  0.13130001    -0.12940
F188        F  0.27434422  0.07524870  0.11888398    -0.15300
F189        F  0.22066477  0.15326145  0.19182905    -0.15300
F190        F  0.30459009  0.19038818  0.18198690    -0.12940
C191        C  0.42581705  0.27782986  0.15897297     0.25070
C192        C  0.40679843  0.30172041  0.15364646    -0.23040
C193        C  0.36594825  0.28160862  0.14147305     0.19980
C194        C  0.34389962  0.23798721  0.13543795     0.25020
C195        C  0.36194179  0.21255299  0.14132203    -0.22980
C196        C  0.40455964  0.23435848  0.15220697     0.19920
F197        F  0.42796455  0.21567510  0.15424508    -0.12940
F198        F  0.46624313  0.29720257  0.16957859    -0.15300
F199        F  0.30434162  0.22044665  0.12367221    -0.15300
F200        F  0.34659794  0.30391633  0.13612414    -0.12940
C201        C  0.38908547  0.09602767  0.12441412     0.25070
C202        C  0.40373266  0.09728849  0.15169046    -0.23040
C203        C  0.39339320  0.11648049  0.17304720     0.19980
C204        C  0.37025630  0.13621912  0.16671939     0.25020
C205        C  0.35906737  0.13931235  0.13855962    -0.22980
C206        C  0.36622227  0.11550218  0.11791227     0.19920
F207        F  0.34878708  0.10761916  0.09169038    -0.12940
F208        F  0.39598566  0.07464643  0.10392362    -0.15300
F209        F  0.36053817  0.15417519  0.18799183    -0.15300
F210        F  0.40541954  0.11583750  0.20003470    -0.12940
C211        C  0.21523671  0.14543568  0.99392820     0.25070
C212        C  0.19816962  0.10999307  0.47629942    -0.23040
C213        C  0.22564276  0.09835122  0.46500611     0.19980
C214        C  0.26875843  0.11953461  0.47296649     0.25020
C215        C  0.28685029  0.15411403  0.49288252    -0.22980
C216        C  0.25840656  0.16770070  0.00143272     0.19920
F217        F  0.26871662  0.19798614  0.02093907    -0.12940
F218        F  0.18973598  0.15824372  0.00498090    -0.15300
F219        F  0.29101048  0.10390990  0.46097016    -0.15300
F220        F  0.21055075  0.06482109  0.44691497    -0.12940
C221        C  0.40097231  0.24382501  0.48602937     0.25070
C222        C  0.36173487  0.22292171  0.50089714    -0.23040
C223        C  0.35234540  0.25175940  0.01414691     0.19980
C224        C  0.36860784  0.29290136  0.00437628     0.25020
C225        C  0.40093574  0.30989645  0.48450878    -0.22980
C226        C  0.41836180  0.28564830  0.47633616     0.19920
F227        F  0.45464928  0.30371384  0.46112236    -0.12940
F228        F  0.42729643  0.22835128  0.48532072    -0.15300
F229        F  0.35365493  0.31646852  0.01561665    -0.15300
F230        F  0.33506285  0.24421654  0.04008221    -0.12940
C231        C  0.39675454  0.13268275  0.46503202     0.25070
C232        C  0.39547916  0.10237912  0.48347028    -0.23040
C233        C  0.36808942  0.08939835  0.00626209     0.19980
C234        C  0.34641455  0.11008458  0.01264323     0.25020
C235        C  0.35290187  0.14613054  0.49697968    -0.22980
C236        C  0.37328850  0.15209417  0.47073539     0.19920
F237        F  0.36989566  0.17607682  0.45035607    -0.12940
F238        F  0.41940106  0.14229313  0.44101041    -0.15300
F239        F  0.31754161  0.09294179  0.03349089    -0.15300
F240        F  0.36265202  0.05684460  0.02278166    -0.12940
C241        C  0.29363681  0.14836196  0.05496723     0.25070
C242        C  0.33165128  0.16998726  0.03935411    -0.23040
C243        C  0.37066811  0.18969986  0.05465321     0.19980
C244        C  0.37153066  0.18916928  0.08380218     0.25020
C245        C  0.33334131  0.16853309  0.09933670    -0.22980
C246        C  0.29458058  0.15218398  0.08398997     0.19920
F247        F  0.25702584  0.14075979  0.09620588    -0.12940
F248        F  0.25532334  0.12005382  0.04309509    -0.15300
F249        F  0.41023081  0.20672616  0.09680577    -0.15300
F250        F  0.40856932  0.20834014  0.04127434    -0.12940
C251        C  0.33311165  0.17310121  0.50679902    -0.01010
C252        C  0.33648844  0.16460270  0.63170276    -0.01010
C253        C  0.15248154  0.34245626  0.87953300    -0.01010
C254        C  0.16627759  0.34256153  0.75472136    -0.01010
C255        C  0.42040584  0.08216733  0.97837602     0.43930
N256        N  0.43683757  0.03431574  0.97703525     0.02820
C257        C  0.13392812  0.06680278  0.94181276    -0.05050
H258        H  0.07737118  0.13281908  0.87415513     0.08320
C259        C  0.45627483  0.47453811  0.84882838    -0.05400
Co260      Co  0.03069034  0.07068213  0.97257793     0.74180
N261        N  0.05404473  0.09798971  0.91296958    -0.24580
Co262      Co  0.05187327  0.03974200  0.90881469     0.74070
C263        C  0.48731502  0.01015817  0.83159114     0.44040
N264        N  0.39884598  0.44551814  0.91599053     0.02440
N265        N  0.00943490  0.02020984  0.87467575     0.02550
N266        N  0.12143295  0.08785034  0.98334168    -0.45430
H267        H  0.49075842  0.13639587  0.97636214     0.08300
N268        N  0.04623423  0.10896847  0.93758829     0.02830
N269        N  0.04855146  0.48091033  0.90719684     0.02570
C270        C  0.06353387  0.43173706  0.90786462     0.44180
N271        N  0.39127873  0.45782336  0.94019202    -0.24040
C272        C  0.03289360  0.03851411  0.53331931    -0.04960
N273        N  0.40407776  0.03978743  0.97885756    -0.45140
N274        N  0.08086081  0.47439658  0.90645942    -0.45370
C275        C  0.50301878  0.50242009  0.55057237     0.43950
N276        N  0.08693339  0.07020620  0.96688817     0.02820
N277        N  0.43112604  0.41927407  0.97082939    -0.24060
N278        N  0.47386403  0.07051830  0.97610530    -0.24550
N279        N  0.43837213  0.40636565  0.94684145     0.02460
H280        H  0.41049777  0.39031838  0.51121454     0.08350
H281        H  0.99286531  0.37879109  0.90894878     0.08380
N282        N  0.09401547  0.05853526  0.94235421    -0.24600
N283        N  0.47277966  0.48344031  0.87513838    -0.24210
N284        N  0.47653030  0.49525658  0.50877344     0.02820
C285        C  0.06505742  0.16376742  0.91222095     0.44220
C286        C  0.35189393  0.45143818  0.93923090    -0.05460
N287        N  0.01125387  0.44493144  0.90822929    -0.24210
H288        H  0.42830305  0.44487017  0.84207917     0.08370
N289        N  0.05315221  0.14798772  0.93811955    -0.45430
H290        H  0.33592721  0.45609258  0.95655953     0.08360
C291        C  0.41929593  0.35407471  0.97489458     0.44060
C292        C  0.46670185  0.10282425  0.97682973    -0.04960
Co293      Co  0.43349241  0.47639964  0.97453668     0.73820
N294        N  0.36552132  0.42927734  0.89851819    -0.45150
C295        C  0.15218386  0.08619250  0.96894782     0.44320
N296        N  0.46866540  0.47726568  0.53393648    -0.45140
Co297      Co  0.45472504  0.44446289  0.91107568     0.73890
C298        C  0.01748298  0.41215841  0.90826603    -0.05470
C299        C  0.06642794  0.13100295  0.89538526    -0.05030
N300        N  0.01375056  0.03134038  0.50791199    -0.24560
N301        N  0.01945471  0.03678558  0.84915945    -0.45320
H302        H  0.14914979  0.06354898  0.92350310     0.08330
C303        C  0.41932501  0.38867242  0.98987686    -0.05440
Cl304      Cl  0.49264973  0.00788352  0.94164123    -0.48450
C305        C  0.33495509  0.43268938  0.91161889     0.44080
H306        H  0.06257446  0.06694107  0.53950236     0.08300
N307        N  0.43134095  0.36719747  0.94829019    -0.45160
C308        C  0.34597851  0.42683820  0.72181106     0.43930
N309        N  0.40019352  0.44865914  0.69537805     0.02820
C310        C  0.09721178  0.48143565  0.73161243    -0.05050
H311        H  0.05574243  0.07202369  0.79096835     0.08320
C312        C  0.06090028  0.14576193  0.69121130    -0.05400
Co313      Co  0.46996367  0.44442489  0.72462122     0.74180
N314        N  0.02218849  0.02439109  0.75851747    -0.24580
Co315      Co  0.06341355  0.04275614  0.72409537     0.74070
C316        C  0.07973428  0.16407491  0.71846974     0.44040
N317        N  0.47520805  0.05978549  0.65648334     0.02440
N318        N  0.06282125  0.09863299  0.71742102     0.02550
N319        N  0.03543554  0.41747577  0.73107035    -0.45430
H320        H  0.38067250  0.41543757  0.75855522     0.08300
N321        N  0.48661499  0.48663146  0.75871425     0.02830
N322        N  0.10309242  0.05880670  0.68971665     0.02570
C323        C  0.15825964  0.07689559  0.66509342     0.44180
N324        N  0.43926539  0.02241626  0.65732565    -0.24040
C325        C  0.44733340  0.36393767  0.68969282    -0.04960
N326        N  0.36052604  0.44031082  0.69566575    -0.45140
N327        N  0.14217702  0.06571498  0.69097700    -0.45370
C328        C  0.42893330  0.34707011  0.66199965     0.43950
N329        N  0.02855711  0.44927868  0.72864935     0.02820
N330        N  0.47849897  0.48448224  0.62527204    -0.24060
N331        N  0.41223139  0.44068393  0.71961353    -0.24550
N332        N  0.01509892  0.02129275  0.62469496     0.02460
H333        H  0.43911300  0.43991463  0.59263557     0.08350
H334        H  0.12765460  0.08810057  0.62592293     0.08380
N335        N  0.06406572  0.48690100  0.72886272    -0.24600
N336        N  0.05208581  0.10571969  0.69237322    -0.24210
N337        N  0.44106462  0.41061303  0.66590340     0.02820
C338        C  0.49135511  0.01117601  0.80057037     0.44220
C339        C  0.40642746  0.02859474  0.65760491    -0.05460
N340        N  0.09241480  0.06594543  0.66456760    -0.24210
H341        H  0.05852770  0.16108571  0.67246274     0.08370
N342        N  0.46758711  0.47735797  0.78344841    -0.45430
H343        H  0.37303606  0.00397598  0.65846039     0.08360
C344        C  0.50379853  0.49903360  0.58164664     0.44060
C345        C  0.38029069  0.42680149  0.73767972    -0.04960
Co346      Co  0.43923286  0.46604796  0.66052483     0.73820
N347        N  0.46866203  0.09204114  0.65625030    -0.45150
C348        C  0.07813987  0.43527103  0.73280009     0.44320
N349        N  0.42526652  0.37744254  0.64854074    -0.45140
Co350      Co  0.03411005  0.06354069  0.65901026     0.73890
C351        C  0.12564042  0.07781890  0.64744453    -0.05470
C352        C  0.02783892  0.04239468  0.78408173    -0.05030
N353        N  0.45326066  0.40306254  0.69034566    -0.24560
N354        N  0.08057209  0.13326040  0.73357805    -0.45320
H355        H  0.13029346  0.50685113  0.73264870     0.08330
C356        C  0.46899038  0.46786680  0.59913137    -0.05440
Cl357      Cl  0.50177439  0.00417240  0.69199135    -0.48450
C358        C  0.42601718  0.07463084  0.65772178     0.44080
H359        H  0.45170363  0.34791537  0.70734743     0.08300
N360        N  0.03081721  0.03145401  0.59896980    -0.45160
C361        C  0.11395651  0.28065373  0.72026289     0.25070
C362        C  0.14684096  0.29743487  0.74107721    -0.23040
C363        C  0.16250085  0.27089753  0.74956279     0.19980
C364        C  0.14049411  0.22763771  0.74248651     0.25020
C365        C  0.10380389  0.21004667  0.72537270    -0.22980
C366        C  0.09188491  0.23731205  0.71336467     0.19920
F367        F  0.05805906  0.22200255  0.69530466    -0.12940
F368        F  0.10322005  0.30559235  0.70580919    -0.15300
F369        F  0.15500214  0.20293464  0.75273053    -0.15300
F370        F  0.19654437  0.28559638  0.76734239    -0.12940
C371        C  0.14327951  0.43000809  0.72936481     0.25070
C372        C  0.10002086  0.41119812  0.73586525    -0.23040
C373        C  0.07812907  0.36961891  0.74638208     0.19980
C374        C  0.09935999  0.34784821  0.75122871     0.25020
C375        C  0.14333790  0.36641175  0.74511252    -0.22980
C376        C  0.16491221  0.40867215  0.73440557     0.19920
F377        F  0.20773655  0.43203565  0.73116673    -0.12940
F378        F  0.16549848  0.46981173  0.71851018    -0.15300
F379        F  0.07680479  0.30848019  0.76273088    -0.15300
F380        F  0.03631015  0.35035034  0.75317048    -0.12940
C381        C  0.26823645  0.39398893  0.71000910     0.25070
C382        C  0.30108527  0.40759043  0.73024453    -0.23040
C383        C  0.29038339  0.39981053  0.75863423     0.19980
C384        C  0.24803021  0.37781901  0.76674727     0.25020
C385        C  0.21431873  0.36604403  0.74682122    -0.22980
C386        C  0.22558060  0.37302508  0.71810446     0.19920
F387        F  0.19503809  0.36038683  0.69773083    -0.12940
F388        F  0.27712140  0.40016049  0.68221461    -0.15300
F389        F  0.24125059  0.36548892  0.79397047    -0.15300
F390        F  0.32087090  0.41280422  0.77905071    -0.12940
C391        C  0.06463249  0.22419164  0.88897207     0.25070
C392        C  0.08507918  0.20948880  0.90636721    -0.23040
C393        C  0.12285469  0.23913693  0.92045892     0.19980
C394        C  0.14287830  0.28262010  0.91443719     0.25020
C395        C  0.12638058  0.29720913  0.89299659    -0.22980
C396        C  0.08408538  0.26774870  0.88326698     0.19920
F397        F  0.06363077  0.27992516  0.86522761    -0.12940
F398        F  0.02618572  0.19623433  0.87696979    -0.15300
F399        F  0.17779557  0.30983527  0.93010201    -0.15300
F400        F  0.14082392  0.22585649  0.93983953    -0.12940
C401        C  0.10248523  0.37185801  0.86682249     0.25070
C402        C  0.12726690  0.36473452  0.88699540    -0.23040
C403        C  0.12537129  0.37576791  0.91528041     0.19980
C404        C  0.10610158  0.39904556  0.92208727     0.25020
C405        C  0.08587828  0.40940836  0.90117293    -0.22980
C406        C  0.08306653  0.39449423  0.87386574     0.19920
F407        F  0.06037404  0.40104862  0.85388019    -0.12940
F408        F  0.09394835  0.35487448  0.84052829    -0.15300
F409        F  0.10688637  0.41115827  0.94913433    -0.15300
F410        F  0.14420760  0.36593779  0.93619220    -0.12940
C411        C  0.22272871  0.40992930  0.90014607     0.25070
C412        C  0.20062034  0.36752027  0.88919554    -0.23040
C413        C  0.22583469  0.34927634  0.88354792     0.19980
C414        C  0.26939259  0.37071406  0.89019800     0.25020
C415        C  0.28969093  0.41119496  0.90267546    -0.22980
C416        C  0.26610518  0.43058078  0.90750230     0.19920
F417        F  0.28570412  0.47078916  0.91821239    -0.12940
F418        F  0.20439878  0.43365959  0.90179767    -0.15300
F419        F  0.29141460  0.35107913  0.88519413    -0.15300
F420        F  0.20812381  0.31000681  0.87161496    -0.12940
C421        C  0.17816248  0.37890480  0.80272516     0.25070
C422        C  0.16067611  0.34037187  0.78715844    -0.23040
C423        C  0.13848283  0.30197188  0.80246742     0.19980
C424        C  0.14104470  0.30219080  0.83155220     0.25020
C425        C  0.15611265  0.34034769  0.84711791    -0.22980
C426        C  0.17601047  0.37888129  0.83183955     0.19920
F427        F  0.19256180  0.41708875  0.84509353    -0.12940
F428        F  0.19913607  0.41725888  0.78980141    -0.15300
F429        F  0.13044027  0.26461496  0.84361114    -0.15300
F430        F  0.11225946  0.26352397  0.79017168    -0.12940
C431        C  0.26225122  0.09583340  0.63655405     0.25070
C432        C  0.29162651  0.13841873  0.64561274    -0.23040
C433        C  0.27725655  0.15507498  0.66679785     0.19980
C434        C  0.23383067  0.13488147  0.67300433     0.25020
C435        C  0.20408604  0.09663303  0.65954764    -0.22980
C436        C  0.21877030  0.07603398  0.64260494     0.19920
F437        F  0.19084480  0.03714945  0.63129545    -0.12940
F438        F  0.27435179  0.07525914  0.61888122    -0.15300
F439        F  0.22066575  0.15325733  0.69183379    -0.15300
F440        F  0.30459158  0.19038593  0.68199417    -0.12940
C441        C  0.42581404  0.27783311  0.65899276     0.25070
C442        C  0.40679360  0.30172291  0.65366976    -0.23040
C443        C  0.36594645  0.28161306  0.64149170     0.19980
C444        C  0.34390188  0.23799404  0.63544930     0.25020
C445        C  0.36194515  0.21256006  0.64133026    -0.22980
C446        C  0.40456094  0.23436426  0.65221894     0.19920
F447        F  0.42796786  0.21568270  0.65425385    -0.12940
F448        F  0.46623804  0.29720468  0.66960187    -0.15300
F449        F  0.30434614  0.22045533  0.62368029    -0.15300
F450        F  0.34659495  0.30392023  0.63614500    -0.12940
C451        C  0.38909424  0.09604018  0.62441049     0.25070
C452        C  0.40373836  0.09729484  0.65168691    -0.23040
C453        C  0.39339631  0.11648200  0.67304547     0.19980
C454        C  0.37026002  0.13622195  0.66671967     0.25020
C455        C  0.35907373  0.13932118  0.63856031    -0.22980
C456        C  0.36623141  0.11551594  0.61791061     0.19920
F457        F  0.34879884  0.10763835  0.59168811    -0.12940
F458        F  0.39599667  0.07466341  0.60391796    -0.15300
F459        F  0.36053910  0.15417273  0.68799399    -0.15300
F460        F  0.40541941  0.11583286  0.70003289    -0.12940
C461        C  0.21524251  0.14545405  0.49393327     0.25070
C462        C  0.19816040  0.10996975  0.97629913    -0.23040
C463        C  0.22562816  0.09831826  0.96500995     0.19980
C464        C  0.26874340  0.11949871  0.97296986     0.25020
C465        C  0.28683930  0.15408507  0.99288062    -0.22980
C466        C  0.25841320  0.16772261  0.50143779     0.19920
F467        F  0.26872065  0.19800419  0.52094660    -0.12940
F468        F  0.18973775  0.15825359  0.50499071    -0.15300
F469        F  0.29098986  0.10386266  0.96098006    -0.15300
F470        F  0.21053051  0.06478125  0.94692411    -0.12940
C471        C  0.40095198  0.24379404  0.98601547     0.25070
C472        C  0.36172124  0.22289195  0.00089046    -0.23040
C473        C  0.35235824  0.25178925  0.51415365     0.19980
C474        C  0.36863521  0.29293856  0.50439091     0.25020
C475        C  0.40089801  0.30985535  0.98448683    -0.22980
C476        C  0.41832949  0.28561205  0.97631475     0.19920
F477        F  0.45461124  0.30367868  0.96109503    -0.12940
F478        F  0.42728134  0.22832641  0.98530617    -0.15300
F479        F  0.35368645  0.31650848  0.51563251    -0.15300
F480        F  0.33506574  0.24423992  0.54008584    -0.12940
C481        C  0.39674077  0.13265518  0.96502879     0.25070
C482        C  0.39547201  0.10235777  0.98346973    -0.23040
C483        C  0.36809302  0.08941832  0.50626095     0.19980
C484        C  0.34642034  0.11010713  0.51264277     0.25020
C485        C  0.35289094  0.14610375  0.99697743    -0.22980
C486        C  0.37327184  0.15206323  0.97073147     0.19920
F487        F  0.36987076  0.17603842  0.95035028    -0.12940
F488        F  0.41938366  0.14226257  0.94100573    -0.15300
F489        F  0.31754472  0.09296289  0.53348876    -0.15300
F490        F  0.36264992  0.05686049  0.52277843    -0.12940
C491        C  0.29364594  0.14838246  0.55496990     0.25070
C492        C  0.33166101  0.17001135  0.53935761    -0.23040
C493        C  0.37067699  0.18972281  0.55465794     0.19980
C494        C  0.37153804  0.18918837  0.58380699     0.25020
C495        C  0.33334807  0.16854798  0.59934055    -0.22980
C496        C  0.29458800  0.15219978  0.58399304     0.19920
F497        F  0.25703208  0.14077164  0.59620867    -0.12940
F498        F  0.25533387  0.12007343  0.54309645    -0.15300
F499        F  0.41023755  0.20674529  0.59681152    -0.15300
F500        F  0.40857918  0.20836507  0.54128035    -0.12940
C501        C  0.33313779  0.67310387  0.00679777    -0.01010
C502        C  0.33648810  0.66459628  0.13170036    -0.01010
C503        C  0.15252264  0.84246835  0.37953161    -0.01010
C504        C  0.16628275  0.84256021  0.25471879    -0.01010
C505        C  0.42040927  0.58218352  0.47837640     0.43930
N506        N  0.43683696  0.53432797  0.47703557     0.02820
C507        C  0.13393035  0.56681095  0.44181609    -0.05050
H508        H  0.07738640  0.63282512  0.37415818     0.08320
C509        C  0.45628688  0.97449645  0.34880792    -0.05400
Co510      Co  0.03069026  0.57068874  0.47258019     0.74180
N511        N  0.05404963  0.59799483  0.41297139    -0.24580
Co512      Co  0.05187350  0.53974407  0.40881755     0.74070
C513        C  0.48732021  0.51015589  0.33158986     0.44040
N514        N  0.39888864  0.94551700  0.41599259     0.02440
N515        N  0.00943654  0.52021233  0.37467616     0.02550
N516        N  0.12143600  0.58786216  0.48334358    -0.45430
H517        H  0.49076379  0.63640812  0.47636264     0.08300
N518        N  0.04623888  0.60897535  0.43758951     0.02830
N519        N  0.04858392  0.98092655  0.40716502     0.02570
C520        C  0.06360064  0.93177756  0.40785201     0.44180
N521        N  0.39132782  0.95785925  0.44018534    -0.24040
C522        C  0.03288371  0.53853859  0.03330448    -0.04960
N523        N  0.40407894  0.53980290  0.47885780    -0.45140
N524        N  0.08090704  0.97443339  0.40642655    -0.45370
C525        C  0.50302935  0.00241372  0.05056702     0.43950
N526        N  0.08693391  0.57021102  0.46689194     0.02820
N527        N  0.43117176  0.91932076  0.47083504    -0.24060
N528        N  0.47386491  0.57052910  0.47610575    -0.24550
N529        N  0.43844146  0.90640692  0.44685518     0.02460
H530        H  0.41052410  0.89032057  0.01121600     0.08350
H531        H  0.99294317  0.87880848  0.40896718     0.08380
N532        N  0.09401560  0.55853807  0.44235845    -0.24600
N533        N  0.47279738  0.98340861  0.37511603    -0.24210
N534        N  0.47653673  0.99524920  0.00877007     0.02820
C535        C  0.06507398  0.66377748  0.41222222     0.44220
C536        C  0.35194505  0.95147839  0.43921614    -0.05460
N537        N  0.01130088  0.94493852  0.40821789    -0.24210
H538        H  0.42832616  0.94481978  0.34206016     0.08370
N539        N  0.05316368  0.64799738  0.43812039    -0.45430
H540        H  0.33598096  0.95615227  0.45653791     0.08360
C541        C  0.41934166  0.85411850  0.47491616     0.44060
C542        C  0.46670533  0.60283704  0.47682998    -0.04960
Co543      Co  0.43352459  0.97645281  0.47454590     0.73820
N544        N  0.36556079  0.92926350  0.39852217    -0.45150
C545        C  0.15218877  0.58620725  0.46894965     0.44320
N546        N  0.46867489  0.97725789  0.03393263    -0.45140
Co547      Co  0.45477546  0.94445563  0.41106692     0.73890
C548        C  0.01754881  0.91217855  0.40826759    -0.05470
C549        C  0.06643997  0.63100969  0.39538732    -0.05030
N550        N  0.01374649  0.53135412  0.00789344    -0.24560
N551        N  0.01945931  0.53678415  0.34915870    -0.45320
H552        H  0.14915187  0.56355900  0.42350572     0.08330
C553        C  0.41935532  0.88871842  0.48988550    -0.05440
Cl554      Cl  0.49264779  0.50788954  0.44164334    -0.48450
C555        C  0.33499989  0.93269685  0.41161235     0.44080
H556        H  0.06255526  0.56697552  0.03948894     0.08300
N557        N  0.43140910  0.86723931  0.44831497    -0.45160
C558        C  0.34597833  0.92682711  0.22179796     0.43930
N559        N  0.40019282  0.94865062  0.19536444     0.02820
C560        C  0.09721379  0.98143363  0.23160374    -0.05050
H561        H  0.05574647  0.57201922  0.29096476     0.08320
C562        C  0.06089566  0.64575942  0.19120998    -0.05400
Co563      Co  0.46996473  0.94441691  0.22460568     0.74180
N564        N  0.02218992  0.52438740  0.25851373    -0.24580
Co565      Co  0.06341337  0.54275378  0.22409031     0.74070
C566        C  0.07972925  0.66407114  0.21846872     0.44040
N567        N  0.47520531  0.55978357  0.15648152     0.02440
N568        N  0.06281919  0.59863001  0.21741766     0.02550
N569        N  0.03543945  0.91747211  0.23105859    -0.45430
H570        H  0.38067310  0.91542310  0.25854009     0.08300
N571        N  0.48661083  0.98661899  0.25869770     0.02830
N572        N  0.10309084  0.55880608  0.18971067     0.02570
C573        C  0.15825758  0.57689648  0.16508687     0.44180
N574        N  0.43926355  0.52241350  0.15732311    -0.24040
C575        C  0.44733967  0.86393489  0.18967666    -0.04960
N576        N  0.36052530  0.94030226  0.19565290    -0.45140
N577        N  0.14217527  0.56571401  0.19097034    -0.45370
C578        C  0.42893786  0.84706714  0.16198416     0.43950
N579        N  0.02855935  0.94927368  0.22863506     0.02820
N580        N  0.47850343  0.98448212  0.12526317    -0.24060
N581        N  0.41223091  0.94067290  0.21959881    -0.24550
N582        N  0.01509834  0.52129916  0.12468657     0.02460
H583        H  0.43912449  0.93990886  0.09262753     0.08350
H584        H  0.12765257  0.58810403  0.12591744     0.08380
N585        N  0.06406674  0.98689704  0.22885059    -0.24600
N586        N  0.05208304  0.60571765  0.19237040    -0.24210
N587        N  0.44106736  0.91060920  0.16588849     0.02820
C588        C  0.49136032  0.51117134  0.30056836     0.44220
C589        C  0.40642495  0.52859043  0.15760730    -0.05460
N590        N  0.09241312  0.56594658  0.16456210    -0.24210
H591        H  0.05852203  0.66108400  0.17246216     0.08370
N592        N  0.46757892  0.97734097  0.28343001    -0.45430
H593        H  0.37303401  0.50397075  0.15846409     0.08360
C594        C  0.50380897  0.99903004  0.08164045     0.44060
C595        C  0.38029051  0.92678845  0.23766523    -0.04960
Co596      Co  0.43923423  0.96604423  0.16051277     0.73820
N597        N  0.46865788  0.59203820  0.15625355    -0.45150
C598        C  0.07814380  0.93526921  0.23279194     0.44320
N599        N  0.42526863  0.87743865  0.14852579    -0.45140
Co600      Co  0.03410816  0.56354142  0.15900578     0.73890
C601        C  0.12563856  0.57782117  0.14743874    -0.05470
C602        C  0.02784245  0.54239029  0.28407858    -0.05030
N603        N  0.45326545  0.90305879  0.19032982    -0.24560
N604        N  0.08056875  0.63325639  0.23357567    -0.45320
H605        H  0.13029487  0.00685013  0.23264324     0.08330
C606        C  0.46899942  0.96786375  0.09912367    -0.05440
Cl607      Cl  0.50177436  0.50417062  0.19198579    -0.48450
C608        C  0.42601323  0.57462628  0.15772850     0.44080
H609        H  0.45171045  0.84791283  0.20733115     0.08300
N610        N  0.03081503  0.53146697  0.09896090    -0.45160
C611        C  0.11395339  0.78065088  0.22026378     0.25070
C612        C  0.14684113  0.79743202  0.24107586    -0.23040
C613        C  0.16250008  0.77089326  0.24956005     0.19980
C614        C  0.14049115  0.72763326  0.24248438     0.25020
C615        C  0.10379930  0.71004282  0.22537228    -0.22980
C616        C  0.09187982  0.73730886  0.21336590     0.19920
F617        F  0.05805211  0.72199974  0.19530752    -0.12940
F618        F  0.10321606  0.80558994  0.20581149    -0.15300
F619        F  0.15499935  0.70292955  0.25272689    -0.15300
F620        F  0.19654592  0.78559123  0.26733742    -0.12940
C621        C  0.14328501  0.93000780  0.22936225     0.25070
C622        C  0.10002624  0.91119819  0.23586217    -0.23040
C623        C  0.07813550  0.86962109  0.24638269     0.19980
C624        C  0.09936680  0.84785104  0.25123132     0.25020
C625        C  0.14334359  0.86641234  0.24511255    -0.22980
C626        C  0.16491776  0.90867203  0.23440432     0.19920
F627        F  0.20774201  0.93203472  0.23116484    -0.12940
F628        F  0.16550363  0.96981050  0.21850615    -0.15300
F629        F  0.07681257  0.80848503  0.26273641    -0.15300
F630        F  0.03631709  0.85035396  0.25317216    -0.12940
C631        C  0.26823538  0.89398344  0.20999986     0.25070
C632        C  0.30108638  0.90758214  0.23023340    -0.23040
C633        C  0.29038789  0.89980142  0.25862346     0.19980
C634        C  0.24803612  0.87781050  0.26673860     0.25020
C635        C  0.21432240  0.86603945  0.24681500    -0.22980
C636        C  0.22558046  0.87302129  0.21809766     0.19920
F637        F  0.19503535  0.86038533  0.19772608    -0.12940
F638        F  0.27711731  0.90015631  0.18220504    -0.15300
F639        F  0.24126003  0.86547626  0.29396110    -0.15300
F640        F  0.32087732  0.91279325  0.27903845    -0.12940
C641        C  0.06465995  0.72420853  0.38897429     0.25070
C642        C  0.08510291  0.70950022  0.40636832    -0.23040
C643        C  0.12288229  0.73914464  0.42045813     0.19980
C644        C  0.14291219  0.78262851  0.41443579     0.25020
C645        C  0.12641683  0.79722199  0.39299646    -0.22980
C646        C  0.08411927  0.76776616  0.38326852     0.19920
F647        F  0.06366707  0.77994729  0.36523059    -0.12940
F648        F  0.02621025  0.69625579  0.37697370    -0.15300
F649        F  0.17783298  0.80984014  0.43009901    -0.15300
F650        F  0.14084896  0.72585981  0.43983757    -0.12940
C651        C  0.10254056  0.87188525  0.36681680     0.25070
C652        C  0.12731406  0.86475380  0.38699183    -0.23040
C653        C  0.12541952  0.87579111  0.41527594     0.19980
C654        C  0.10616060  0.89908020  0.42207964     0.25020
C655        C  0.08595217  0.90945595  0.40116211    -0.22980
C656        C  0.08313820  0.89453814  0.37385589     0.19920
F657        F  0.06045210  0.90109827  0.35386851    -0.12940
F658        F  0.09399382  0.85489250  0.34052503    -0.15300
F659        F  0.10694072  0.91119090  0.44912661    -0.15300
F660        F  0.14424644  0.86595322  0.43618971    -0.12940
C661        C  0.22277381  0.90994008  0.40014158     0.25070
C662        C  0.20066194  0.86752953  0.38919352    -0.23040
C663        C  0.22587362  0.84928256  0.38354638     0.19980
C664        C  0.26943239  0.87071897  0.39019490     0.25020
C665        C  0.28973459  0.91120224  0.40266964    -0.22980
C666        C  0.26615097  0.93059084  0.40749525     0.19920
F667        F  0.28575246  0.97080165  0.41820145    -0.12940
F668        F  0.20444713  0.93367341  0.40179232    -0.15300
F669        F  0.29145137  0.85108078  0.38519164    -0.15300
F670        F  0.20815933  0.81001176  0.37161479    -0.12940
C671        C  0.17818602  0.87890895  0.30272180     0.25070
C672        C  0.16068921  0.84037401  0.28715634    -0.23040
C673        C  0.13849929  0.80197576  0.30246740     0.19980
C674        C  0.14107317  0.80219744  0.33155184     0.25020
C675        C  0.15615126  0.84035663  0.34711662    -0.22980
C676        C  0.17604971  0.87888894  0.33183679     0.19920
F677        F  0.19261222  0.91709850  0.34508974    -0.12940
F678        F  0.19915686  0.91726149  0.28979602    -0.15300
F679        F  0.13046852  0.76462185  0.34361136    -0.15300
F680        F  0.11226833  0.76352756  0.29017419    -0.12940
C681        C  0.26224785  0.59583024  0.13654928     0.25070
C682        C  0.29162426  0.63841529  0.14560790    -0.23040
C683        C  0.27725445  0.65507365  0.16679170     0.19980
C684        C  0.23382847  0.63488190  0.17299730     0.25020
C685        C  0.20408351  0.59663340  0.15954089    -0.22980
C686        C  0.21876697  0.57603272  0.14259923     0.19920
F687        F  0.19084082  0.53714795  0.13129031    -0.12940
F688        F  0.27434765  0.57525370  0.11887801    -0.15300
F689        F  0.22066386  0.65325906  0.19182595    -0.15300
F690        F  0.30458981  0.69038479  0.18198778    -0.12940
C691        C  0.42581554  0.77782886  0.15898403     0.25070
C692        C  0.40679702  0.80171933  0.15365658    -0.23040
C693        C  0.36594955  0.78160869  0.14147916     0.19980
C694        C  0.34390328  0.73798848  0.13544095     0.25020
C695        C  0.36194507  0.71255420  0.14132584    -0.22980
C696        C  0.40456045  0.73435856  0.15221500     0.19920
F697        F  0.42796540  0.71567538  0.15425473    -0.12940
F698        F  0.46623944  0.79720078  0.16959338    -0.15300
F699        F  0.30434764  0.72044903  0.12367167    -0.15300
F700        F  0.34659937  0.80391625  0.13612917    -0.12940
C701        C  0.38908736  0.59602821  0.12441607     0.25070
C702        C  0.40373308  0.59728787  0.15169253    -0.23040
C703        C  0.39339198  0.61647795  0.17304962     0.19980
C704        C  0.37025560  0.63621706  0.16672175     0.25020
C705        C  0.35906967  0.63931283  0.13856173    -0.22980
C706        C  0.36622457  0.61550274  0.11791429     0.19920
F707        F  0.34879041  0.60762054  0.09169207    -0.12940
F708        F  0.39598890  0.57464833  0.10392528    -0.15300
F709        F  0.36053556  0.65417140  0.18799427    -0.15300
F710        F  0.40541654  0.61583300  0.20003730    -0.12940
C711        C  0.21528220  0.64549313  0.99393043     0.25070
C712        C  0.19816746  0.60999085  0.47629948    -0.23040
C713        C  0.22564042  0.59834920  0.46500556     0.19980
C714        C  0.26875665  0.61953397  0.47296453     0.25020
C715        C  0.28684891  0.65411397  0.49288004    -0.22980
C716        C  0.25845281  0.66775160  0.00143418     0.19920
F717        F  0.26876936  0.69803820  0.02094072    -0.12940
F718        F  0.18978740  0.65830666  0.00498560    -0.15300
F719        F  0.29100897  0.60391012  0.46096741    -0.15300
F720        F  0.21054778  0.56481803  0.44691525    -0.12940
C721        C  0.40097088  0.74382417  0.48602789     0.25070
C722        C  0.36173392  0.72292094  0.50089617    -0.23040
C723        C  0.35240276  0.75179547  0.01416537     0.19980
C724        C  0.36867760  0.79294451  0.00440358     0.25020
C725        C  0.40093519  0.80989632  0.48450832    -0.22980
C726        C  0.41836033  0.78564763  0.47633481     0.19920
F727        F  0.45464705  0.80371280  0.46112024    -0.12940
F728        F  0.42729490  0.72835035  0.48531880    -0.15300
F729        F  0.35373370  0.81651502  0.01565107    -0.15300
F730        F  0.33511272  0.74424323  0.04009867    -0.12940
C731        C  0.39675376  0.63268149  0.46503143     0.25070
C732        C  0.39547740  0.60237754  0.48346989    -0.23040
C733        C  0.36808984  0.58939704  0.00624020     0.19980
C734        C  0.34643464  0.61009996  0.01263305     0.25020
C735        C  0.35289939  0.64612876  0.49697783    -0.22980
C736        C  0.37328736  0.65209281  0.47073405     0.19920
F737        F  0.36989548  0.67607576  0.45035451    -0.12940
F738        F  0.41940161  0.64229226  0.44101039    -0.15300
F739        F  0.31756876  0.59296200  0.03348497    -0.15300
F740        F  0.36264294  0.55683411  0.02275374    -0.12940
C741        C  0.29366151  0.64837948  0.05496399     0.25070
C742        C  0.33168049  0.67000491  0.03935533    -0.23040
C743        C  0.37069335  0.68970879  0.05465845     0.19980
C744        C  0.37154827  0.68917562  0.08380743     0.25020
C745        C  0.33335465  0.66854047  0.09933775    -0.22980
C746        C  0.29459790  0.65219511  0.08398696     0.19920
F747        F  0.25704021  0.64076904  0.09619917    -0.12940
F748        F  0.25534996  0.62007761  0.04308671    -0.15300
F749        F  0.41024496  0.70672854  0.09681533    -0.15300
F750        F  0.40859775  0.70834661  0.04128351    -0.12940
C751        C  0.33310959  0.67309999  0.50679706    -0.01010
C752        C  0.33648132  0.66459566  0.63170108    -0.01010
C753        C  0.15253922  0.84248647  0.87951957    -0.01010
C754        C  0.16628890  0.84257003  0.75470842    -0.01010
C755        C  0.42039341  0.58215516  0.97834300     0.43930
N756        N  0.43683261  0.53430451  0.97701353     0.02820
C757        C  0.13395347  0.56682050  0.94182818    -0.05050
H758        H  0.07744662  0.63283166  0.87414530     0.08320
C759        C  0.45628776  0.97448911  0.84880589    -0.05400
Co760      Co  0.03071656  0.57073275  0.97255279     0.74180
N761        N  0.05409028  0.59801594  0.91296237    -0.24580
Co762      Co  0.05188755  0.53974941  0.90884193     0.74070
C763        C  0.48732718  0.51018809  0.83161257     0.44040
N764        N  0.39889351  0.94550947  0.91599242     0.02440
N765        N  0.00944088  0.52022566  0.87470088     0.02550
N766        N  0.12147528  0.58793466  0.98333777    -0.45430
H767        H  0.49073934  0.63638830  0.97630982     0.08300
N768        N  0.04626044  0.60900352  0.93756852     0.02830
N769        N  0.04858693  0.98092559  0.90716176     0.02570
C770        C  0.06360974  0.93178154  0.90785076     0.44180
N771        N  0.39133134  0.95784918  0.94018565    -0.24040
C772        C  0.03288480  0.53851173  0.53332671    -0.04960
N773        N  0.40407213  0.53977607  0.97883913    -0.45140
N774        N  0.08091249  0.97443647  0.90642378    -0.45370
C775        C  0.50303090  0.00242106  0.55056433     0.43950
N776        N  0.08697115  0.57026896  0.96688807     0.02820
N777        N  0.43118072  0.91931415  0.97083437    -0.24060
N778        N  0.47385789  0.57051542  0.97606685    -0.24550
N779        N  0.43844919  0.90640032  0.94685413     0.02460
H780        H  0.41049716  0.89031919  0.51121341     0.08350
H781        H  0.99295422  0.87880759  0.90896677     0.08380
N782        N  0.09404271  0.55855680  0.94236772    -0.24600
N783        N  0.47279768  0.98340188  0.87511425    -0.24210
N784        N  0.47653536  0.99525983  0.50876878     0.02820
C785        C  0.06510714  0.66379514  0.91219195     0.44220
C786        C  0.35195088  0.95147396  0.93921453    -0.05460
N787        N  0.01130583  0.94493578  0.90821541    -0.24210
H788        H  0.42832889  0.94481123  0.84205776     0.08370
N789        N  0.05317999  0.64802284  0.93808946    -0.45430
H790        H  0.33598656  0.95614972  0.95653530     0.08360
C791        C  0.41936640  0.85411868  0.97491852     0.44060
C792        C  0.46668697  0.60281544  0.97678373    -0.04960
Co793      Co  0.43352714  0.97644175  0.97454652     0.73820
N794        N  0.36556960  0.92926441  0.89851931    -0.45150
C795        C  0.15222021  0.58625194  0.96895293     0.44320
N796        N  0.46867477  0.97726700  0.53393077    -0.45140
Co797      Co  0.45477931  0.94444887  0.91106551     0.73890
C798        C  0.01755751  0.91217837  0.90826620    -0.05470
C799        C  0.06649087  0.63102454  0.89537080    -0.05030
N800        N  0.01374606  0.53133677  0.50791740    -0.24560
N801        N  0.01947553  0.53679586  0.84918304    -0.45320
H802        H  0.14916700  0.56354397  0.92352228     0.08330
C803        C  0.41937548  0.88871668  0.98988678    -0.05440
Cl804      Cl  0.49266854  0.50788784  0.94169297    -0.48450
C805        C  0.33500975  0.93270011  0.91160857     0.44080
H806        H  0.06256429  0.56693940  0.53951087     0.08300
N807        N  0.43142571  0.86723609  0.94831565    -0.45160
C808        C  0.34598329  0.92683525  0.72179194     0.43930
N809        N  0.40019730  0.94865559  0.69535931     0.02820
C810        C  0.09721466  0.98143581  0.73159945    -0.05050
H811        H  0.05575900  0.57203819  0.79098199     0.08320
C812        C  0.06089663  0.64575977  0.69121821    -0.05400
Co813      Co  0.46996619  0.94441891  0.72460157     0.74180
N814        N  0.02219495  0.52440136  0.75853408    -0.24580
Co815      Co  0.06341417  0.54275918  0.72410789     0.74070
C816        C  0.07973279  0.66407645  0.71847529     0.44040
N817        N  0.47520358  0.55978392  0.65649457     0.02440
N818        N  0.06282186  0.59863529  0.71743031     0.02550
N819        N  0.03544043  0.91747392  0.73105227    -0.45430
H820        H  0.38067459  0.91542805  0.75853481     0.08300
N821        N  0.48661118  0.98661919  0.75869459     0.02830
N822        N  0.10308933  0.55880423  0.68972665     0.02570
C823        C  0.15825442  0.57689065  0.66510103     0.44180
N824        N  0.43926052  0.52241538  0.65733932    -0.24040
C825        C  0.44733973  0.86393676  0.68967256    -0.04960
N826        N  0.36053091  0.94030992  0.69564714    -0.45140
N827        N  0.14217434  0.56571297  0.69098558    -0.45370
C828        C  0.42893714  0.84706884  0.66198027     0.43950
N829        N  0.02856020  0.94927555  0.72863114     0.02820
N830        N  0.47850835  0.98448627  0.62525984    -0.24060
N831        N  0.41223382  0.94067659  0.71959382    -0.24550
N832        N  0.01509067  0.52128770  0.62470600     0.02460
H833        H  0.43912839  0.93991451  0.59262398     0.08350
H834        H  0.12764514  0.58809131  0.62593116     0.08380
N835        N  0.06406749  0.98689897  0.72884769    -0.24600
N836        N  0.05208362  0.60571838  0.69238231    -0.24210
N837        N  0.44106983  0.91061224  0.66588402     0.02820
C838        C  0.49136909  0.51119659  0.80059039     0.44220
C839        C  0.40642306  0.52859448  0.65761713    -0.05460
N840        N  0.09240929  0.56594027  0.66457753    -0.24210
H841        H  0.05852168  0.66108062  0.67246885     0.08370
N842        N  0.46757917  0.97733908  0.78342694    -0.45430
H843        H  0.37303155  0.50397617  0.65847342     0.08360
C844        C  0.50381301  0.99903540  0.58163728     0.44060
C845        C  0.38029332  0.92679370  0.73765984    -0.04960
Co846      Co  0.43923846  0.96604841  0.66050844     0.73820
N847        N  0.46865824  0.59204002  0.65625806    -0.45150
C848        C  0.07814478  0.93527156  0.73278512     0.44320
N849        N  0.42526934  0.87744108  0.64852166    -0.45140
Co850      Co  0.03410502  0.56353704  0.65902101     0.73890
C851        C  0.12563311  0.57781169  0.64745314    -0.05470
C852        C  0.02785202  0.54240875  0.78409801    -0.05030
N853        N  0.45326733  0.90306139  0.69032542    -0.24560
N854        N  0.08057341  0.63326478  0.73358530    -0.45320
H855        H  0.13029575  0.00685230  0.73263886     0.08330
C856        C  0.46900384  0.96786863  0.59912027    -0.05440
Cl857      Cl  0.50177110  0.50417348  0.69200620    -0.48450
C858        C  0.42601345  0.57463054  0.65772990     0.44080
H859        H  0.45170914  0.84791416  0.70732730     0.08300
N860        N  0.03080570  0.53144979  0.59897984    -0.45160
C861        C  0.11396099  0.78065652  0.72025650     0.25070
C862        C  0.14684949  0.79744105  0.74106788    -0.23040
C863        C  0.16250906  0.77090402  0.74955511     0.19980
C864        C  0.14049866  0.72764258  0.74248395     0.25020
C865        C  0.10380487  0.71004922  0.72537369    -0.22980
C866        C  0.09188545  0.73731305  0.71336359     0.19920
F867        F  0.05805551  0.72200045  0.69530686    -0.12940
F868        F  0.10322365  0.80559320  0.70580119    -0.15300
F869        F  0.15500660  0.70294030  0.75272964    -0.15300
F870        F  0.19655580  0.78560503  0.76733196    -0.12940
C871        C  0.14328569  0.93001178  0.72935005     0.25070
C872        C  0.10002761  0.91120120  0.73585211    -0.23040
C873        C  0.07813817  0.86962410  0.74637223     0.19980
C874        C  0.09937071  0.84785541  0.75121967     0.25020
C875        C  0.14334763  0.86641865  0.74510043    -0.22980
C876        C  0.16491993  0.90867750  0.73439111     0.19920
F877        F  0.20774382  0.93204107  0.73115006    -0.12940
F878        F  0.16550222  0.96981415  0.71849324    -0.15300
F879        F  0.07681804  0.80848961  0.76272521    -0.15300
F880        F  0.03632023  0.85035610  0.75316318    -0.12940
C881        C  0.26824200  0.89399158  0.70999167     0.25070
C882        C  0.30109188  0.90759177  0.73022616    -0.23040
C883        C  0.29039283  0.89981300  0.75861604     0.19980
C884        C  0.24804112  0.87782178  0.76673026     0.25020
C885        C  0.21432829  0.86604972  0.74680567    -0.22980
C886        C  0.22558703  0.87302967  0.71808854     0.19920
F887        F  0.19504251  0.86039159  0.69771633    -0.12940
F888        F  0.27712507  0.90016226  0.68219692    -0.15300
F889        F  0.24126435  0.86548738  0.79395274    -0.15300
F890        F  0.32088162  0.91280639  0.77903165    -0.12940
C891        C  0.06468447  0.72422604  0.88895418     0.25070
C892        C  0.08513775  0.70951580  0.90633639    -0.23040
C893        C  0.12291617  0.73915782  0.92042792     0.19980
C894        C  0.14293720  0.78264351  0.91441589     0.25020
C895        C  0.12643581  0.79724024  0.89298308    -0.22980
C896        C  0.08413730  0.76778507  0.88325654     0.19920
F897        F  0.06367904  0.77996901  0.86522615    -0.12940
F898        F  0.02623160  0.69627430  0.87695701    -0.15300
F899        F  0.17785525  0.80985326  0.93008203    -0.15300
F900        F  0.14088705  0.72586939  0.93980168    -0.12940
C901        C  0.10255610  0.87190278  0.86680889     0.25070
C902        C  0.12733079  0.86477044  0.88698234    -0.23040
C903        C  0.12543616  0.87580348  0.91526748     0.19980
C904        C  0.10617414  0.89908830  0.92207411     0.25020
C905        C  0.08596396  0.90946446  0.90115827    -0.22980
C906        C  0.08315159  0.89455216  0.87385078     0.19920
F907        F  0.06046417  0.90111343  0.85386503    -0.12940
F908        F  0.09400881  0.85491278  0.84051633    -0.15300
F909        F  0.10695278  0.91119424  0.94912211    -0.15300
F910        F  0.14426449  0.86596419  0.93617953    -0.12940
C911        C  0.22278987  0.90995531  0.90013144     0.25070
C912        C  0.20067848  0.86754701  0.88917989    -0.23040
C913        C  0.22588964  0.84930037  0.88353006     0.19980
C914        C  0.26944647  0.87073284  0.89018198     0.25020
C915        C  0.28974740  0.91121215  0.90266201    -0.22980
C916        C  0.26616553  0.93060240  0.90748831     0.19920
F917        F  0.28576716  0.97081064  0.91819889    -0.12940
F918        F  0.20446400  0.93368931  0.90178354    -0.15300
F919        F  0.29146433  0.85109379  0.88517753    -0.15300
F920        F  0.20817629  0.81003246  0.87159425    -0.12940
C921        C  0.17819274  0.87892356  0.80270943     0.25070
C922        C  0.16069521  0.84038722  0.78714535    -0.23040
C923        C  0.13850602  0.80199018  0.80245712     0.19980
C924        C  0.14108484  0.80221378  0.83154084     0.25020
C925        C  0.15616433  0.84037391  0.84710482    -0.22980
C926        C  0.17606060  0.87890549  0.83182449     0.19920
F927        F  0.19262531  0.91711558  0.84507717    -0.12940
F928        F  0.19916190  0.91727512  0.78978234    -0.15300
F929        F  0.13048578  0.76463951  0.84360002    -0.15300
F930        F  0.11227234  0.76354142  0.79016531    -0.12940
C931        C  0.26224325  0.59582806  0.63655509     0.25070
C932        C  0.29161957  0.63841411  0.64561183    -0.23040
C933        C  0.27725184  0.65507243  0.66679708     0.19980
C934        C  0.23382685  0.63487843  0.67300676     0.25020
C935        C  0.20408056  0.59662808  0.65955269    -0.22980
C936        C  0.21876307  0.57602853  0.64260876     0.19920
F937        F  0.19083652  0.53714293  0.63130113    -0.12940
F938        F  0.27434212  0.57525254  0.61888204    -0.15300
F939        F  0.22066435  0.65325574  0.69183680    -0.15300
F940        F  0.30458847  0.69038573  0.68199087    -0.12940
C941        C  0.42581331  0.77783007  0.65897922     0.25070
C942        C  0.40679432  0.80172048  0.65365355    -0.23040
C943        C  0.36594459  0.78160913  0.64147945     0.19980
C944        C  0.34389673  0.73798824  0.63544279     0.25020
C945        C  0.36193930  0.71255415  0.64132577    -0.22980
C946        C  0.40455673  0.73435927  0.65221157     0.19920
F947        F  0.42796214  0.71567632  0.65424896    -0.12940
F948        F  0.46623908  0.79720252  0.66958537    -0.15300
F949        F  0.30433906  0.72044802  0.62367657    -0.15300
F950        F  0.34659403  0.80391678  0.63613123    -0.12940
C951        C  0.38908948  0.59603459  0.62441531     0.25070
C952        C  0.40373436  0.59729344  0.65169218    -0.23040
C953        C  0.39339111  0.61648198  0.67304904     0.19980
C954        C  0.37025321  0.63621949  0.66672111     0.25020
C955        C  0.35906622  0.63931464  0.63856116    -0.22980
C956        C  0.36622479  0.61550780  0.61791333     0.19920
F957        F  0.34879237  0.60762737  0.59169066    -0.12940
F958        F  0.39599308  0.57465628  0.60392452    -0.15300
F959        F  0.36053243  0.65417293  0.68799379    -0.15300
F960        F  0.40541493  0.61583685  0.70003688    -0.12940
C961        C  0.21524107  0.64545351  0.49393184     0.25070
C962        C  0.19819892  0.61002641  0.97630132    -0.23040
C963        C  0.22566194  0.59836882  0.96501120     0.19980
C964        C  0.26877740  0.61954390  0.97296905     0.25020
C965        C  0.28687942  0.65412886  0.99288066    -0.22980
C966        C  0.25841227  0.66772323  0.50143507     0.19920
F967        F  0.26872093  0.69800678  0.52094258    -0.12940
F968        F  0.18973659  0.65825351  0.50498910    -0.15300
F969        F  0.29101708  0.60390201  0.96097700    -0.15300
F970        F  0.21056031  0.56482993  0.94692679    -0.12940
C971        C  0.40100078  0.74382532  0.98602809     0.25070
C972        C  0.36176864  0.72292521  0.00090126    -0.23040
C973        C  0.35235854  0.75178878  0.51415365     0.19980
C974        C  0.36863591  0.79293860  0.50439141     0.25020
C975        C  0.40096760  0.80989917  0.98451389    -0.22980
C976        C  0.41838923  0.78564909  0.97633543     0.19920
F977        F  0.45466985  0.80371201  0.96111468    -0.12940
F978        F  0.42731981  0.72834598  0.98531153    -0.15300
F979        F  0.35368829  0.81650888  0.51563402    -0.15300
F980        F  0.33506516  0.74423818  0.54008563    -0.12940
C981        C  0.39674743  0.63266507  0.96501229     0.25070
C982        C  0.39546469  0.60235080  0.98344376    -0.23040
C983        C  0.36808970  0.58941607  0.50625969     0.19980
C984        C  0.34641653  0.61010459  0.51264069     0.25020
C985        C  0.35292083  0.64612882  0.99697396    -0.22980
C986        C  0.37329716  0.65208975  0.97072585     0.19920
F987        F  0.36990561  0.67607955  0.95035137    -0.12940
F988        F  0.41938648  0.64227411  0.94098743    -0.15300
F989        F  0.31753944  0.59295951  0.53348579    -0.15300
F990        F  0.36264555  0.55685785  0.52277719    -0.12940
C991        C  0.29364112  0.64837812  0.55496714     0.25070
C992        C  0.33165697  0.67000801  0.53935554    -0.23040
C993        C  0.37067221  0.68971632  0.55465640     0.19980
C994        C  0.37153208  0.68917780  0.58380528     0.25020
C995        C  0.33334154  0.66853820  0.59933850    -0.22980
C996        C  0.29458205  0.65219158  0.58399057     0.19920
F997        F  0.25702553  0.64076146  0.59620599    -0.12940
F998        F  0.25532922  0.62007109  0.54309266    -0.15300
F999        F  0.41023123  0.70673169  0.59680990    -0.15300
F1000       F  0.40857488  0.70835921  0.54127932    -0.12940
C1001       C  0.83310046  0.17307339  0.00679574    -0.01010
C1002       C  0.83648300  0.16459370  0.13169921    -0.01010
C1003       C  0.65252531  0.34247108  0.37952907    -0.01010
C1004       C  0.66628867  0.34256429  0.25471602    -0.01010
C1005       C  0.92041085  0.08218520  0.47837577     0.43930
N1006       N  0.93683895  0.03432999  0.47703345     0.02820
C1007       C  0.63393342  0.06681395  0.44181454    -0.05050
H1008       H  0.57738956  0.13282740  0.37415548     0.08320
C1009       C  0.95628990  0.47449059  0.34880589    -0.05400
Co1010     Co  0.53069260  0.07069229  0.47257665     0.74180
N1011       N  0.55405203  0.09799763  0.41296881    -0.24580
Co1012     Co  0.55187539  0.03974636  0.40881632     0.74070
C1013       C  0.98731582  0.01016361  0.33159289     0.44040
N1014       N  0.89888917  0.44551713  0.41599319     0.02440
N1015       N  0.50943671  0.02021460  0.37467719     0.02550
N1016       N  0.62143842  0.08786670  0.48334123    -0.45430
H1017       H  0.99076503  0.13641018  0.47636065     0.08300
N1018       N  0.54624019  0.10897831  0.43758640     0.02830
N1019       N  0.54858294  0.48092489  0.40716562     0.02570
C1020       C  0.56360020  0.43177635  0.40785132     0.44180
N1021       N  0.89132785  0.45785869  0.44018610    -0.24040
C1022       C  0.53289236  0.03850645  0.03332164    -0.04960
N1023       N  0.90408085  0.03980463  0.47885700    -0.45140
N1024       N  0.58090627  0.47443215  0.40642648    -0.45370
C1025       C  0.00303356  0.50243856  0.05055085     0.43950
N1026       N  0.58693689  0.07021573  0.46688911     0.02820
N1027       N  0.93117109  0.41931992  0.47083610    -0.24060
N1028       N  0.97386667  0.07053134  0.47610293    -0.24550
N1029       N  0.93844099  0.40640650  0.44685606     0.02460
H1030       H  0.91048737  0.39027293  0.01121056     0.08350
H1031       H  0.49294281  0.37880675  0.40896646     0.08380
N1032       N  0.59401874  0.05854155  0.44235625    -0.24600
N1033       N  0.97279751  0.48340600  0.37511500    -0.24210
N1034       N  0.97653984  0.49525108  0.00875017     0.02820
C1035       C  0.56507543  0.16377989  0.41221871     0.44220
C1036       C  0.85194537  0.45147852  0.43921646    -0.05460
N1037       N  0.51130010  0.44493673  0.40821840    -0.24210
H1038       H  0.92833089  0.44481245  0.34205828     0.08370
N1039       N  0.55316444  0.14800010  0.43811686    -0.45430
H1040       H  0.83598091  0.45615210  0.45653812     0.08360
C1041       C  0.91934259  0.35411851  0.47491698     0.44060
C1042       C  0.96670677  0.10283903  0.47682794    -0.04960
Co1043     Co  0.93352273  0.47645097  0.47454786     0.73820
N1044       N  0.86556196  0.42926486  0.39852231    -0.45150
C1045       C  0.65219135  0.08621096  0.46894815     0.44320
N1046       N  0.96868796  0.47726579  0.03391464    -0.45140
Co1047     Co  0.95477514  0.44445458  0.41106741     0.73890
C1048       C  0.51754829  0.41217690  0.40826733    -0.05470
C1049       C  0.56644257  0.13101218  0.39538443    -0.05030
N1050       N  0.51375100  0.03133062  0.00791351    -0.24560
N1051       N  0.51945707  0.03678958  0.34916073    -0.45320
H1052       H  0.64915508  0.06356084  0.42350467     0.08330
C1053       C  0.91935565  0.38871784  0.48988651    -0.05440
Cl1054     Cl  0.99264924  0.00789163  0.44164150    -0.48450
C1055       C  0.83500104  0.43269830  0.41161231     0.44080
H1056       H  0.56257129  0.06693520  0.03950519     0.08300
N1057       N  0.93140951  0.36723927  0.44831577    -0.45160
C1058       C  0.84598156  0.42682537  0.22178846     0.43930
N1059       N  0.90019562  0.44864872  0.19535409     0.02820
C1060       C  0.59721688  0.48143458  0.23159648    -0.05050
H1061       H  0.55574247  0.07202612  0.29096897     0.08320
C1062       C  0.56089579  0.14575908  0.19121334    -0.05400
Co1063     Co  0.96996791  0.44441628  0.22459591     0.74180
N1064       N  0.52218828  0.02439075  0.25851971    -0.24580
Co1065     Co  0.56341223  0.04275442  0.22409739     0.74070
C1066       C  0.57973113  0.16407302  0.21847134     0.44040
N1067       N  0.97520317  0.05978101  0.15648710     0.02440
N1068       N  0.56281940  0.09863130  0.21742284     0.02550
N1069       N  0.53544320  0.41747233  0.23104984    -0.45430
H1070       H  0.88067747  0.41542246  0.25853023     0.08300
N1071       N  0.98661272  0.48661534  0.25869114     0.02830
N1072       N  0.60308973  0.05880437  0.18971812     0.02570
C1073       C  0.65825653  0.07689484  0.16509423     0.44180
N1074       N  0.93926074  0.02241167  0.15733022    -0.24040
C1075       C  0.94734375  0.36393677  0.18966491    -0.04960
N1076       N  0.86052787  0.44030011  0.19564309    -0.45140
N1077       N  0.64217472  0.06571359  0.19097795    -0.45370
C1078       C  0.92894176  0.34706905  0.16197253     0.43950
N1079       N  0.52856255  0.44927346  0.22862557     0.02820
N1080       N  0.97850905  0.48449095  0.12525029    -0.24060
N1081       N  0.91223417  0.44067159  0.21958856    -0.24550
N1082       N  0.51509395  0.02128869  0.12469794     0.02460
H1083       H  0.93912991  0.43992518  0.09261098     0.08350
H1084       H  0.62764988  0.08809912  0.12592434     0.08380
N1085       N  0.56406947  0.48689715  0.22884205    -0.24600
N1086       N  0.55208229  0.10571711  0.19237535    -0.24210
N1087       N  0.94107359  0.41061218  0.16587639     0.02820
C1088       C  0.99135528  0.01117926  0.30057233     0.44220
C1089       C  0.90642270  0.02858980  0.15761063    -0.05460
N1090       N  0.59241114  0.06594296  0.16456934    -0.24210
H1091       H  0.55852180  0.16108232  0.17246492     0.08370
N1092       N  0.96758293  0.47733467  0.28342452    -0.45430
H1093       H  0.87303145  0.00397084  0.15846692     0.08360
C1094       C  0.00381233  0.49905153  0.08162558     0.44060
C1095       C  0.88029417  0.42678714  0.23765527    -0.04960
Co1096     Co  0.93923872  0.46604676  0.16050196     0.73820
N1097       N  0.96865677  0.09203640  0.15625445    -0.45150
C1098       C  0.57814757  0.43527026  0.23278460     0.44320
N1099       N  0.92527355  0.37744111  0.14851394    -0.45140
Co1100     Co  0.53410569  0.06353722  0.15901289     0.73890
C1101       C  0.62563646  0.07781733  0.14744585    -0.05470
C1102       C  0.52783906  0.04239637  0.28408321    -0.05030
N1103       N  0.95327064  0.40306105  0.19031804    -0.24560
N1104       N  0.58057060  0.13325917  0.23357947    -0.45320
H1105       H  0.63029768  0.50685155  0.23263753     0.08330
C1106       C  0.96900493  0.46787914  0.09910861    -0.05440
Cl1107     Cl  0.00177155  0.00416950  0.19199460    -0.48450
C1108       C  0.92601204  0.07462583  0.15772733     0.44080
H1109       H  0.95171285  0.34791401  0.20731967     0.08300
N1110       N  0.53081272  0.03144916  0.09897281    -0.45160
C1111       C  0.61395727  0.28065337  0.22026261     0.25070
C1112       C  0.64684656  0.29743570  0.24107362    -0.23040
C1113       C  0.66250603  0.27089738  0.24955779     0.19980
C1114       C  0.64049606  0.22763679  0.24248362     0.25020
C1115       C  0.60380261  0.21004534  0.22537299    -0.22980
C1116       C  0.59188269  0.23731079  0.21336622     0.19920
F1117       F  0.55805346  0.22200054  0.19530905    -0.12940
F1118       F  0.60321917  0.30559168  0.20581012    -0.15300
F1119       F  0.65500458  0.20293347  0.25272634    -0.15300
F1120       F  0.69655312  0.28559639  0.26733418    -0.12940
C1121       C  0.64328978  0.43001038  0.22935790     0.25070
C1122       C  0.60003074  0.41120033  0.23585709    -0.23040
C1123       C  0.57814055  0.36962412  0.24637910     0.19980
C1124       C  0.59937243  0.34785495  0.25122915     0.25020
C1125       C  0.64334912  0.36641614  0.24511010    -0.22980
C1126       C  0.66492303  0.40867550  0.23440133     0.19920
F1127       F  0.70774738  0.43203859  0.23116230    -0.12940
F1128       F  0.66550803  0.46981257  0.21850097    -0.15300
F1129       F  0.57681865  0.30848970  0.26273533    -0.15300
F1130       F  0.53632210  0.35035704  0.25316846    -0.12940
C1131       C  0.76823776  0.39398396  0.20999338     0.25070
C1132       C  0.80109041  0.40758295  0.23022563    -0.23040
C1133       C  0.79039423  0.39980513  0.25861627     0.19980
C1134       C  0.74804312  0.37781607  0.26673317     0.25020
C1135       C  0.71432781  0.36604343  0.24681071    -0.22980
C1136       C  0.72558359  0.37302355  0.21809286     0.19920
F1137       F  0.69503688  0.36038704  0.19772235    -0.12940
F1138       F  0.77711735  0.40015464  0.18219818    -0.15300
F1139       F  0.74126911  0.36548517  0.29395633    -0.15300
F1140       F  0.82088536  0.41279816  0.27903019    -0.12940
C1141       C  0.56466226  0.22421118  0.38897058     0.25070
C1142       C  0.58510476  0.20950259  0.40636479    -0.23040
C1143       C  0.62288373  0.23914671  0.42045509     0.19980
C1144       C  0.64291383  0.28263064  0.41443304     0.25020
C1145       C  0.62641916  0.29722446  0.39299348    -0.22980
C1146       C  0.58412184  0.26776887  0.38326502     0.19920
F1147       F  0.56367025  0.27995040  0.36522684    -0.12940
F1148       F  0.52621275  0.19625867  0.37696967    -0.15300
F1149       F  0.67783408  0.30984197  0.43009681    -0.15300
F1150       F  0.64084971  0.22586154  0.43983484    -0.12940
C1151       C  0.60254357  0.37188837  0.36681449     0.25070
C1152       C  0.62731653  0.36475616  0.38698947    -0.23040
C1153       C  0.62542084  0.37579176  0.41527384     0.19980
C1154       C  0.60616072  0.39907946  0.42207809     0.25020
C1155       C  0.58595229  0.40945555  0.40116082    -0.22980
C1156       C  0.58313986  0.39453980  0.37385417     0.19920
F1157       F  0.56045402  0.40110054  0.35386692    -0.12940
F1158       F  0.59399850  0.35489753  0.34052221    -0.15300
F1159       F  0.60693971  0.41118849  0.44912534    -0.15300
F1160       F  0.64424756  0.36595334  0.43618745    -0.12940
C1161       C  0.72277559  0.40994216  0.40014024     0.25070
C1162       C  0.70066415  0.36753194  0.38919166    -0.23040
C1163       C  0.72587589  0.34928497  0.38354482     0.19980
C1164       C  0.76943433  0.37072109  0.39019403     0.25020
C1165       C  0.78973610  0.41120406  0.40266915    -0.22980
C1166       C  0.76615245  0.43059264  0.40749460     0.19920
F1167       F  0.78575362  0.47080310  0.41820137    -0.12940
F1168       F  0.70444877  0.43367539  0.40179094    -0.15300
F1169       F  0.79145338  0.35108287  0.38519111    -0.15300
F1170       F  0.70816195  0.31001439  0.37161295    -0.12940
C1171       C  0.67819243  0.37891298  0.30271940     0.25070
C1172       C  0.66069604  0.34037823  0.28715378    -0.23040
C1173       C  0.63850531  0.30197986  0.30246475     0.19980
C1174       C  0.64107787  0.30220119  0.33154920     0.25020
C1175       C  0.65615503  0.34036008  0.34711408    -0.22980
C1176       C  0.67605432  0.37889260  0.33183442     0.19920
F1177       F  0.69261605  0.41710194  0.34508754    -0.12940
F1178       F  0.69916359  0.41726559  0.28979372    -0.15300
F1179       F  0.63047254  0.26462538  0.34360866    -0.15300
F1180       F  0.61227396  0.26353179  0.29017151    -0.12940
C1181       C  0.76224549  0.09582661  0.13655492     0.25070
C1182       C  0.79162187  0.13841335  0.14561050    -0.23040
C1183       C  0.77725367  0.15507412  0.16679368     0.19980
C1184       C  0.73382820  0.13488211  0.17300129     0.25020
C1185       C  0.70408244  0.09663135  0.15954745    -0.22980
C1186       C  0.71876513  0.07602892  0.14260676     0.19920
F1187       F  0.69083854  0.03714262  0.13130003    -0.12940
F1188       F  0.77434423  0.07524869  0.11888401    -0.15300
F1189       F  0.72066476  0.15326146  0.19182904    -0.15300
F1190       F  0.80459008  0.19038819  0.18198690    -0.12940
C1191       C  0.92581704  0.27782985  0.15897299     0.25070
C1192       C  0.90679843  0.30172040  0.15364647    -0.23040
C1193       C  0.86594825  0.28160862  0.14147305     0.19980
C1194       C  0.84389962  0.23798720  0.13543795     0.25020
C1195       C  0.86194178  0.21255299  0.14132204    -0.22980
C1196       C  0.90455964  0.23435848  0.15220698     0.19920
F1197       F  0.92796455  0.21567509  0.15424510    -0.12940
F1198       F  0.96624312  0.29720256  0.16957862    -0.15300
F1199       F  0.80434163  0.22044665  0.12367221    -0.15300
F1200       F  0.84659794  0.30391632  0.13612414    -0.12940
C1201       C  0.88908549  0.09602768  0.12441413     0.25070
C1202       C  0.90373267  0.09728850  0.15169047    -0.23040
C1203       C  0.89339320  0.11648048  0.17304721     0.19980
C1204       C  0.87025629  0.13621911  0.16671940     0.25020
C1205       C  0.85906737  0.13931235  0.13855963    -0.22980
C1206       C  0.86622227  0.11550218  0.11791228     0.19920
F1207       F  0.84878709  0.10761916  0.09169039    -0.12940
F1208       F  0.89598568  0.07464645  0.10392363    -0.15300
F1209       F  0.86053816  0.15417517  0.18799184    -0.15300
F1210       F  0.90541953  0.11583748  0.20003471    -0.12940
C1211       C  0.71523669  0.14543566  0.99392823     0.25070
C1212       C  0.69816962  0.10999307  0.47629942    -0.23040
C1213       C  0.72564276  0.09835122  0.46500611     0.19980
C1214       C  0.76875843  0.11953462  0.47296649     0.25020
C1215       C  0.78685029  0.15411403  0.49288252    -0.22980
C1216       C  0.75840654  0.16770067  0.00143275     0.19920
F1217       F  0.76871659  0.19798608  0.02093914    -0.12940
F1218       F  0.68973596  0.15824367  0.00498096    -0.15300
F1219       F  0.79101049  0.10390991  0.46097016    -0.15300
F1220       F  0.71055076  0.06482110  0.44691497    -0.12940
C1221       C  0.90097231  0.24382501  0.48602938     0.25070
C1222       C  0.86173487  0.22292171  0.50089714    -0.23040
C1223       C  0.85234537  0.25175938  0.01414690     0.19980
C1224       C  0.86860781  0.29290134  0.00437627     0.25020
C1225       C  0.90093574  0.30989646  0.48450878    -0.22980
C1226       C  0.91836180  0.28564830  0.47633616     0.19920
F1227       F  0.95464929  0.30371384  0.46112237    -0.12940
F1228       F  0.92729644  0.22835128  0.48532073    -0.15300
F1229       F  0.85365488  0.31646849  0.01561662    -0.15300
F1230       F  0.83506284  0.24421654  0.04008221    -0.12940
C1231       C  0.89675454  0.13268276  0.46503202     0.25070
C1232       C  0.89547916  0.10237912  0.48347028    -0.23040
C1233       C  0.86808942  0.08939835  0.00626210     0.19980
C1234       C  0.84641454  0.11008457  0.01264323     0.25020
C1235       C  0.85290187  0.14613055  0.49697968    -0.22980
C1236       C  0.87328851  0.15209417  0.47073539     0.19920
F1237       F  0.86989566  0.17607682  0.45035607    -0.12940
F1238       F  0.91940106  0.14229313  0.44101041    -0.15300
F1239       F  0.81754160  0.09294178  0.03349089    -0.15300
F1240       F  0.86265203  0.05684460  0.02278166    -0.12940
C1241       C  0.79363682  0.14836194  0.05496724     0.25070
C1242       C  0.83165128  0.16998725  0.03935412    -0.23040
C1243       C  0.87066811  0.18969987  0.05465322     0.19980
C1244       C  0.87153066  0.18916928  0.08380219     0.25020
C1245       C  0.83334131  0.16853308  0.09933671    -0.22980
C1246       C  0.79458058  0.15218396  0.08398998     0.19920
F1247       F  0.75702584  0.14075975  0.09620588    -0.12940
F1248       F  0.75532335  0.12005376  0.04309510    -0.15300
F1249       F  0.91023081  0.20672618  0.09680578    -0.15300
F1250       F  0.90856932  0.20834016  0.04127435    -0.12940
C1251       C  0.83311165  0.17310121  0.50679902    -0.01010
C1252       C  0.83648845  0.16460272  0.63170277    -0.01010
C1253       C  0.65248154  0.34245625  0.87953300    -0.01010
C1254       C  0.66627759  0.34256153  0.75472136    -0.01010
C1255       C  0.92040585  0.08216734  0.97837604     0.43930
N1256       N  0.93683759  0.03431575  0.97703526     0.02820
C1257       C  0.63392811  0.06680279  0.94181276    -0.05050
H1258       H  0.57737117  0.13281907  0.87415513     0.08320
C1259       C  0.95627483  0.47453813  0.84882839    -0.05400
Co1260     Co  0.53069033  0.07068213  0.97257792     0.74180
N1261       N  0.55404472  0.09798971  0.91296958    -0.24580
Co1262     Co  0.55187326  0.03974199  0.90881470     0.74070
C1263       C  0.98731503  0.01015819  0.83159113     0.44040
N1264       N  0.89884598  0.44551814  0.91599053     0.02440
N1265       N  0.50943490  0.02020983  0.87467575     0.02550
N1266       N  0.62143295  0.08785035  0.98334168    -0.45430
H1267       H  0.99075844  0.13639588  0.97636215     0.08300
N1268       N  0.54623422  0.10896846  0.93758829     0.02830
N1269       N  0.54855147  0.48091033  0.90719683     0.02570
C1270       C  0.56353388  0.43173706  0.90786462     0.44180
N1271       N  0.89127872  0.45782336  0.94019203    -0.24040
C1272       C  0.53289362  0.03851412  0.53331930    -0.04960
N1273       N  0.90407777  0.03978744  0.97885757    -0.45140
N1274       N  0.58086082  0.47439658  0.90645942    -0.45370
C1275       C  0.00301878  0.50242010  0.55057238     0.43950
N1276       N  0.58693338  0.07020621  0.96688817     0.02820
N1277       N  0.93112602  0.41927406  0.97082939    -0.24060
N1278       N  0.97386404  0.07051830  0.97610530    -0.24550
N1279       N  0.93837212  0.40636564  0.94684145     0.02460
H1280       H  0.91049777  0.39031838  0.51121454     0.08350
H1281       H  0.49286532  0.37879110  0.90894879     0.08380
N1282       N  0.59401547  0.05853527  0.94235421    -0.24600
N1283       N  0.97277966  0.48344032  0.87513838    -0.24210
N1284       N  0.97653031  0.49525659  0.50877344     0.02820
C1285       C  0.56505740  0.16376741  0.91222094     0.44220
C1286       C  0.85189392  0.45143818  0.93923091    -0.05460
N1287       N  0.51125387  0.44493144  0.90822929    -0.24210
H1288       H  0.92830305  0.44487019  0.84207917     0.08370
N1289       N  0.55315219  0.14798771  0.93811954    -0.45430
H1290       H  0.83592720  0.45609257  0.95655954     0.08360
C1291       C  0.91929591  0.35407470  0.97489457     0.44060
C1292       C  0.96670187  0.10282426  0.97682974    -0.04960
Co1293     Co  0.93349241  0.47639963  0.97453668     0.73820
N1294       N  0.86552132  0.42927734  0.89851819    -0.45150
C1295       C  0.65218385  0.08619252  0.96894782     0.44320
N1296       N  0.96866540  0.47726569  0.53393649    -0.45140
Co1297     Co  0.95472503  0.44446289  0.91107568     0.73890
C1298       C  0.51748299  0.41215841  0.90826603    -0.05470
C1299       C  0.56642792  0.13100295  0.89538526    -0.05030
N1300       N  0.51375057  0.03134039  0.50791198    -0.24560
N1301       N  0.51945470  0.03678556  0.84915945    -0.45320
H1302       H  0.64914978  0.06354900  0.92350310     0.08330
C1303       C  0.91932499  0.38867240  0.98987686    -0.05440
Cl1304     Cl  0.99264974  0.00788353  0.94164123    -0.48450
C1305       C  0.83495509  0.43268938  0.91161890     0.44080
H1306       H  0.56257448  0.06694108  0.53950235     0.08300
N1307       N  0.93134094  0.36719746  0.94829019    -0.45160
C1308       C  0.84597852  0.42683822  0.72181107     0.43930
N1309       N  0.90019353  0.44865916  0.69537806     0.02820
C1310       C  0.59721178  0.48143564  0.73161243    -0.05050
H1311       H  0.55574243  0.07202368  0.79096836     0.08320
C1312       C  0.56090028  0.14576193  0.69121130    -0.05400
Co1313     Co  0.96996368  0.44442491  0.72462123     0.74180
N1314       N  0.52218849  0.02439110  0.75851747    -0.24580
Co1315     Co  0.56341355  0.04275614  0.72409537     0.74070
C1316       C  0.57973428  0.16407491  0.71846974     0.44040
N1317       N  0.97520804  0.05978548  0.65648335     0.02440
N1318       N  0.56282125  0.09863300  0.71742102     0.02550
N1319       N  0.53543553  0.41747576  0.73107034    -0.45430
H1320       H  0.88067251  0.41543758  0.75855523     0.08300
N1321       N  0.98661500  0.48663148  0.75871426     0.02830
N1322       N  0.60309243  0.05880672  0.68971665     0.02570
C1323       C  0.65825966  0.07689560  0.66509342     0.44180
N1324       N  0.93926537  0.02241626  0.65732567    -0.24040
C1325       C  0.94733340  0.36393769  0.68969283    -0.04960
N1326       N  0.86052605  0.44031084  0.69566576    -0.45140
N1327       N  0.64217703  0.06571499  0.69097701    -0.45370
C1328       C  0.92893330  0.34707013  0.66199966     0.43950
N1329       N  0.52855710  0.44927867  0.72864934     0.02820
N1330       N  0.97849897  0.48448225  0.62527205    -0.24060
N1331       N  0.91223140  0.44068395  0.71961354    -0.24550
N1332       N  0.51509894  0.02129276  0.62469496     0.02460
H1333       H  0.93911300  0.43991464  0.59263558     0.08350
H1334       H  0.62765462  0.08810058  0.62592293     0.08380
N1335       N  0.56406571  0.48690098  0.72886271    -0.24600
N1336       N  0.55208582  0.10571970  0.69237322    -0.24210
N1337       N  0.94106463  0.41061304  0.66590341     0.02820
C1338       C  0.99135512  0.01117603  0.80057037     0.44220
C1339       C  0.90642745  0.02859474  0.65760493    -0.05460
N1340       N  0.59241482  0.06594544  0.66456761    -0.24210
H1341       H  0.55852771  0.16108572  0.67246273     0.08370
N1342       N  0.96758712  0.47735800  0.78344842    -0.45430
H1343       H  0.87303605  0.00397599  0.65846042     0.08360
C1344       C  0.00379853  0.49903361  0.58164665     0.44060
C1345       C  0.88029070  0.42680151  0.73767973    -0.04960
Co1346     Co  0.93923287  0.46604798  0.66052484     0.73820
N1347       N  0.96866202  0.09204114  0.65625031    -0.45150
C1348       C  0.57813987  0.43527102  0.73280008     0.44320
N1349       N  0.92526653  0.37744256  0.64854075    -0.45140
Co1350     Co  0.53411007  0.06354070  0.65901026     0.73890
C1351       C  0.62564044  0.07781891  0.64744454    -0.05470
C1352       C  0.52783892  0.04239468  0.78408173    -0.05030
N1353       N  0.95326067  0.40306255  0.69034567    -0.24560
N1354       N  0.58057209  0.13326040  0.73357805    -0.45320
H1355       H  0.63029345  0.50685113  0.73264870     0.08330
C1356       C  0.96899039  0.46786682  0.59913138    -0.05440
Cl1357     Cl  0.00177438  0.00417240  0.69199135    -0.48450
C1358       C  0.92601717  0.07463085  0.65772180     0.44080
H1359       H  0.95170364  0.34791538  0.70734744     0.08300
N1360       N  0.53081724  0.03145403  0.59896979    -0.45160
C1361       C  0.61395652  0.28065374  0.72026289     0.25070
C1362       C  0.64684096  0.29743488  0.74107721    -0.23040
C1363       C  0.66250085  0.27089753  0.74956279     0.19980
C1364       C  0.64049411  0.22763771  0.74248651     0.25020
C1365       C  0.60380390  0.21004667  0.72537270    -0.22980
C1366       C  0.59188491  0.23731206  0.71336466     0.19920
F1367       F  0.55805907  0.22200256  0.69530465    -0.12940
F1368       F  0.60322006  0.30559236  0.70580919    -0.15300
F1369       F  0.65500214  0.20293464  0.75273052    -0.15300
F1370       F  0.69654438  0.28559638  0.76734238    -0.12940
C1371       C  0.64327951  0.43000809  0.72936480     0.25070
C1372       C  0.60002086  0.41119812  0.73586525    -0.23040
C1373       C  0.57812907  0.36961890  0.74638208     0.19980
C1374       C  0.59935999  0.34784821  0.75122872     0.25020
C1375       C  0.64333790  0.36641175  0.74511252    -0.22980
C1376       C  0.66491221  0.40867215  0.73440557     0.19920
F1377       F  0.70773656  0.43203565  0.73116673    -0.12940
F1378       F  0.66549848  0.46981172  0.71851018    -0.15300
F1379       F  0.57680480  0.30848019  0.76273088    -0.15300
F1380       F  0.53631015  0.35035034  0.75317048    -0.12940
C1381       C  0.76823646  0.39398894  0.71000911     0.25070
C1382       C  0.80108528  0.40759044  0.73024454    -0.23040
C1383       C  0.79038340  0.39981054  0.75863424     0.19980
C1384       C  0.74803022  0.37781901  0.76674728     0.25020
C1385       C  0.71431873  0.36604404  0.74682123    -0.22980
C1386       C  0.72558061  0.37302509  0.71810446     0.19920
F1387       F  0.69503810  0.36038684  0.69773083    -0.12940
F1388       F  0.77712142  0.40016051  0.68221462    -0.15300
F1389       F  0.74125059  0.36548892  0.79397047    -0.15300
F1390       F  0.82087090  0.41280423  0.77905072    -0.12940
C1391       C  0.56463248  0.22419164  0.88897206     0.25070
C1392       C  0.58507917  0.20948879  0.90636721    -0.23040
C1393       C  0.62285468  0.23913692  0.92045892     0.19980
C1394       C  0.64287829  0.28262009  0.91443719     0.25020
C1395       C  0.62638058  0.29720913  0.89299658    -0.22980
C1396       C  0.58408538  0.26774869  0.88326698     0.19920
F1397       F  0.56363077  0.27992516  0.86522761    -0.12940
F1398       F  0.52618572  0.19623433  0.87696978    -0.15300
F1399       F  0.67779555  0.30983526  0.93010202    -0.15300
F1400       F  0.64082390  0.22585648  0.93983953    -0.12940
C1401       C  0.60248523  0.37185802  0.86682249     0.25070
C1402       C  0.62726690  0.36473452  0.88699540    -0.23040
C1403       C  0.62537129  0.37576790  0.91528041     0.19980
C1404       C  0.60610158  0.39904556  0.92208727     0.25020
C1405       C  0.58587829  0.40940836  0.90117293    -0.22980
C1406       C  0.58306654  0.39449423  0.87386574     0.19920
F1407       F  0.56037405  0.40104863  0.85388019    -0.12940
F1408       F  0.59394835  0.35487448  0.84052829    -0.15300
F1409       F  0.60688637  0.41115828  0.94913433    -0.15300
F1410       F  0.64420760  0.36593779  0.93619220    -0.12940
C1411       C  0.72272871  0.40992930  0.90014607     0.25070
C1412       C  0.70062034  0.36752027  0.88919555    -0.23040
C1413       C  0.72583469  0.34927634  0.88354792     0.19980
C1414       C  0.76939259  0.37071406  0.89019801     0.25020
C1415       C  0.78969093  0.41119496  0.90267547    -0.22980
C1416       C  0.76610518  0.43058078  0.90750231     0.19920
F1417       F  0.78570411  0.47078916  0.91821239    -0.12940
F1418       F  0.70439878  0.43365959  0.90179767    -0.15300
F1419       F  0.79141460  0.35107913  0.88519414    -0.15300
F1420       F  0.70812381  0.31000680  0.87161497    -0.12940
C1421       C  0.67816248  0.37890480  0.80272516     0.25070
C1422       C  0.66067611  0.34037187  0.78715844    -0.23040
C1423       C  0.63848283  0.30197188  0.80246742     0.19980
C1424       C  0.64104471  0.30219080  0.83155221     0.25020
C1425       C  0.65611265  0.34034769  0.84711791    -0.22980
C1426       C  0.67601048  0.37888129  0.83183955     0.19920
F1427       F  0.69256180  0.41708875  0.84509353    -0.12940
F1428       F  0.69913607  0.41725888  0.78980141    -0.15300
F1429       F  0.63044027  0.26461496  0.84361115    -0.15300
F1430       F  0.61225947  0.26352397  0.79017168    -0.12940
C1431       C  0.76225124  0.09583341  0.63655406     0.25070
C1432       C  0.79162653  0.13841874  0.64561274    -0.23040
C1433       C  0.77725656  0.15507500  0.66679785     0.19980
C1434       C  0.73383069  0.13488148  0.67300434     0.25020
C1435       C  0.70408605  0.09663305  0.65954765    -0.22980
C1436       C  0.71877031  0.07603400  0.64260495     0.19920
F1437       F  0.69084481  0.03714947  0.63129546    -0.12940
F1438       F  0.77435180  0.07525916  0.61888122    -0.15300
F1439       F  0.72066576  0.15325734  0.69183379    -0.15300
F1440       F  0.80459160  0.19038596  0.68199417    -0.12940
C1441       C  0.92581405  0.27783313  0.65899276     0.25070
C1442       C  0.90679361  0.30172293  0.65366977    -0.23040
C1443       C  0.86594646  0.28161308  0.64149171     0.19980
C1444       C  0.84390189  0.23799406  0.63544930     0.25020
C1445       C  0.86194516  0.21256008  0.64133026    -0.22980
C1446       C  0.90456095  0.23436428  0.65221895     0.19920
F1447       F  0.92796787  0.21568272  0.65425386    -0.12940
F1448       F  0.96623805  0.29720470  0.66960188    -0.15300
F1449       F  0.80434615  0.22045535  0.62368030    -0.15300
F1450       F  0.84659496  0.30392025  0.63614500    -0.12940
C1451       C  0.88909425  0.09604020  0.62441051     0.25070
C1452       C  0.90373836  0.09729485  0.65168693    -0.23040
C1453       C  0.89339631  0.11648201  0.67304548     0.19980
C1454       C  0.87026002  0.13622197  0.66671968     0.25020
C1455       C  0.85907374  0.13932120  0.63856032    -0.22980
C1456       C  0.86623143  0.11551596  0.61791062     0.19920
F1457       F  0.84879886  0.10763837  0.59168812    -0.12940
F1458       F  0.89599668  0.07466342  0.60391798    -0.15300
F1459       F  0.86053911  0.15417275  0.68799400    -0.15300
F1460       F  0.90541941  0.11583287  0.70003290    -0.12940
C1461       C  0.71524251  0.14545405  0.49393327     0.25070
C1462       C  0.69816040  0.10996977  0.97629913    -0.23040
C1463       C  0.72562817  0.09831829  0.96500994     0.19980
C1464       C  0.76874340  0.11949874  0.97296985     0.25020
C1465       C  0.78683929  0.15408506  0.99288063    -0.22980
C1466       C  0.75841319  0.16772260  0.50143780     0.19920
F1467       F  0.76872065  0.19800418  0.52094661    -0.12940
F1468       F  0.68973775  0.15825359  0.50499072    -0.15300
F1469       F  0.79098988  0.10386273  0.96098002    -0.15300
F1470       F  0.71053053  0.06478132  0.94692407    -0.12940
C1471       C  0.90095198  0.24379403  0.98601549     0.25070
C1472       C  0.86172123  0.22289195  0.00089047    -0.23040
C1473       C  0.85235824  0.25178925  0.51415365     0.19980
C1474       C  0.86863521  0.29293856  0.50439091     0.25020
C1475       C  0.90089798  0.30985533  0.98448682    -0.22980
C1476       C  0.91832949  0.28561204  0.97631475     0.19920
F1477       F  0.95461124  0.30367868  0.96109504    -0.12940
F1478       F  0.92728134  0.22832642  0.98530619    -0.15300
F1479       F  0.85368644  0.31650848  0.51563250    -0.15300
F1480       F  0.83506573  0.24423992  0.54008584    -0.12940
C1481       C  0.89674078  0.13265519  0.96502881     0.25070
C1482       C  0.89547202  0.10235777  0.98346974    -0.23040
C1483       C  0.86809302  0.08941832  0.50626095     0.19980
C1484       C  0.84642034  0.11010713  0.51264278     0.25020
C1485       C  0.85289093  0.14610374  0.99697744    -0.22980
C1486       C  0.87327185  0.15206324  0.97073148     0.19920
F1487       F  0.86987078  0.17603843  0.95035029    -0.12940
F1488       F  0.91938369  0.14226259  0.94100574    -0.15300
F1489       F  0.81754473  0.09296290  0.53348876    -0.15300
F1490       F  0.86264992  0.05686049  0.52277844    -0.12940
C1491       C  0.79364595  0.14838247  0.55496991     0.25070
C1492       C  0.83166101  0.17001135  0.53935761    -0.23040
C1493       C  0.87067700  0.18972282  0.55465794     0.19980
C1494       C  0.87153805  0.18918838  0.58380699     0.25020
C1495       C  0.83334808  0.16854799  0.59934056    -0.22980
C1496       C  0.79458801  0.15219979  0.58399305     0.19920
F1497       F  0.75703209  0.14077165  0.59620868    -0.12940
F1498       F  0.75533388  0.12007343  0.54309646    -0.15300
F1499       F  0.91023756  0.20674531  0.59681152    -0.15300
F1500       F  0.90857918  0.20836508  0.54128035    -0.12940
C1501       C  0.83313780  0.67310387  0.00679776    -0.01010
C1502       C  0.83648811  0.66459628  0.13170035    -0.01010
C1503       C  0.65252264  0.84246835  0.37953161    -0.01010
C1504       C  0.66628275  0.84256022  0.25471878    -0.01010
C1505       C  0.92040927  0.58218352  0.47837641     0.43930
N1506       N  0.93683697  0.53432797  0.47703557     0.02820
C1507       C  0.63393035  0.56681095  0.44181608    -0.05050
H1508       H  0.57738640  0.63282512  0.37415818     0.08320
C1509       C  0.95628688  0.97449645  0.34880792    -0.05400
Co1510     Co  0.53069026  0.57068874  0.47258019     0.74180
N1511       N  0.55404963  0.59799483  0.41297138    -0.24580
Co1512     Co  0.55187350  0.53974407  0.40881754     0.74070
C1513       C  0.98732021  0.51015589  0.33158987     0.44040
N1514       N  0.89888864  0.94551700  0.41599259     0.02440
N1515       N  0.50943654  0.52021233  0.37467615     0.02550
N1516       N  0.62143600  0.58786215  0.48334357    -0.45430
H1517       H  0.99076379  0.63640813  0.47636265     0.08300
N1518       N  0.54623888  0.60897535  0.43758950     0.02830
N1519       N  0.54858393  0.98092656  0.40716502     0.02570
C1520       C  0.56360064  0.93177756  0.40785201     0.44180
N1521       N  0.89132782  0.95785925  0.44018534    -0.24040
C1522       C  0.53288372  0.53853862  0.03330447    -0.04960
N1523       N  0.90407894  0.53980290  0.47885780    -0.45140
N1524       N  0.58090704  0.97443339  0.40642655    -0.45370
C1525       C  0.00302936  0.00241372  0.05056702     0.43950
N1526       N  0.58693391  0.57021102  0.46689193     0.02820
N1527       N  0.93117175  0.91932076  0.47083504    -0.24060
N1528       N  0.97386491  0.57052910  0.47610576    -0.24550
N1529       N  0.93844146  0.90640692  0.44685518     0.02460
H1530       H  0.91052412  0.89032058  0.01121599     0.08350
H1531       H  0.49294318  0.87880848  0.40896718     0.08380
N1532       N  0.59401559  0.55853806  0.44235845    -0.24600
N1533       N  0.97279738  0.98340861  0.37511603    -0.24210
N1534       N  0.97653674  0.99524920  0.00877007     0.02820
C1535       C  0.56507398  0.66377747  0.41222221     0.44220
C1536       C  0.85194505  0.95147840  0.43921614    -0.05460
N1537       N  0.51130088  0.94493852  0.40821789    -0.24210
H1538       H  0.92832616  0.94481978  0.34206016     0.08370
N1539       N  0.55316368  0.64799738  0.43812038    -0.45430
H1540       H  0.83598095  0.95615227  0.45653790     0.08360
C1541       C  0.91934165  0.85411849  0.47491616     0.44060
C1542       C  0.96670533  0.60283705  0.47682998    -0.04960
Co1543     Co  0.93352458  0.97645280  0.47454590     0.73820
N1544       N  0.86556079  0.92926350  0.39852217    -0.45150
C1545       C  0.65218877  0.58620725  0.46894964     0.44320
N1546       N  0.96867490  0.97725789  0.03393263    -0.45140
Co1547     Co  0.95477546  0.94445563  0.41106692     0.73890
C1548       C  0.51754881  0.91217855  0.40826759    -0.05470
C1549       C  0.56643997  0.63100969  0.39538731    -0.05030
N1550       N  0.51374650  0.53135414  0.00789343    -0.24560
N1551       N  0.51945931  0.53678415  0.34915869    -0.45320
H1552       H  0.64915187  0.56355900  0.42350571     0.08330
C1553       C  0.91935531  0.88871842  0.48988550    -0.05440
Cl1554     Cl  0.99264779  0.50788954  0.44164335    -0.48450
C1555       C  0.83499989  0.93269685  0.41161235     0.44080
H1556       H  0.56255526  0.56697555  0.03948893     0.08300
N1557       N  0.93140910  0.86723931  0.44831497    -0.45160
C1558       C  0.84597833  0.92682712  0.22179796     0.43930
N1559       N  0.90019282  0.94865062  0.19536444     0.02820
C1560       C  0.59721379  0.98143364  0.23160374    -0.05050
H1561       H  0.55574647  0.57201922  0.29096476     0.08320
C1562       C  0.56089567  0.64575942  0.19120998    -0.05400
Co1563     Co  0.96996473  0.94441691  0.22460568     0.74180
N1564       N  0.52218992  0.52438740  0.25851373    -0.24580
Co1565     Co  0.56341337  0.54275378  0.22409031     0.74070
C1566       C  0.57972925  0.66407115  0.21846872     0.44040
N1567       N  0.97520530  0.55978356  0.15648152     0.02440
N1568       N  0.56281920  0.59863002  0.21741766     0.02550
N1569       N  0.53543944  0.91747211  0.23105859    -0.45430
H1570       H  0.88067310  0.91542310  0.25854009     0.08300
N1571       N  0.98661083  0.98661899  0.25869770     0.02830
N1572       N  0.60309084  0.55880609  0.18971066     0.02570
C1573       C  0.65825759  0.57689649  0.16508687     0.44180
N1574       N  0.93926354  0.52241349  0.15732312    -0.24040
C1575       C  0.94733967  0.86393489  0.18967666    -0.04960
N1576       N  0.86052530  0.94030226  0.19565290    -0.45140
N1577       N  0.64217528  0.56571402  0.19097033    -0.45370
C1578       C  0.92893786  0.84706714  0.16198416     0.43950
N1579       N  0.52855934  0.94927368  0.22863506     0.02820
N1580       N  0.97850344  0.98448212  0.12526317    -0.24060
N1581       N  0.91223091  0.94067290  0.21959881    -0.24550
N1582       N  0.51509834  0.52129917  0.12468656     0.02460
H1583       H  0.93912449  0.93990886  0.09262753     0.08350
H1584       H  0.62765257  0.58810404  0.12591744     0.08380
N1585       N  0.56406674  0.98689704  0.22885059    -0.24600
N1586       N  0.55208304  0.60571765  0.19237040    -0.24210
N1587       N  0.94106736  0.91060920  0.16588849     0.02820
C1588       C  0.99136032  0.51117134  0.30056837     0.44220
C1589       C  0.90642495  0.52859042  0.15760730    -0.05460
N1590       N  0.59241313  0.56594659  0.16456210    -0.24210
H1591       H  0.55852203  0.66108401  0.17246216     0.08370
N1592       N  0.96757892  0.97734097  0.28343001    -0.45430
H1593       H  0.87303400  0.50397075  0.15846408     0.08360
C1594       C  0.00380898  0.99903004  0.08164045     0.44060
C1595       C  0.88029051  0.92678845  0.23766523    -0.04960
Co1596     Co  0.93923424  0.96604423  0.16051277     0.73820
N1597       N  0.96865787  0.59203819  0.15625354    -0.45150
C1598       C  0.57814379  0.93526921  0.23279195     0.44320
N1599       N  0.92526863  0.87743866  0.14852579    -0.45140
Co1600     Co  0.53410817  0.56354143  0.15900577     0.73890
C1601       C  0.62563856  0.57782118  0.14743873    -0.05470
C1602       C  0.52784245  0.54239029  0.28407857    -0.05030
N1603       N  0.95326545  0.90305879  0.19032982    -0.24560
N1604       N  0.58056876  0.63325639  0.23357567    -0.45320
H1605       H  0.63029486  0.00685013  0.23264324     0.08330
C1606       C  0.96899942  0.96786375  0.09912367    -0.05440
Cl1607     Cl  0.00177436  0.50417062  0.19198580    -0.48450
C1608       C  0.92601323  0.57462627  0.15772849     0.44080
H1609       H  0.95171045  0.84791283  0.20733115     0.08300
N1610       N  0.53081503  0.53146699  0.09896089    -0.45160
C1611       C  0.61395340  0.78065089  0.22026378     0.25070
C1612       C  0.64684114  0.79743202  0.24107586    -0.23040
C1613       C  0.66250008  0.77089327  0.24956005     0.19980
C1614       C  0.64049115  0.72763327  0.24248438     0.25020
C1615       C  0.60379930  0.71004282  0.22537228    -0.22980
C1616       C  0.59187983  0.73730886  0.21336590     0.19920
F1617       F  0.55805211  0.72199975  0.19530752    -0.12940
F1618       F  0.60321606  0.80558994  0.20581149    -0.15300
F1619       F  0.65499936  0.70292955  0.25272689    -0.15300
F1620       F  0.69654593  0.78559123  0.26733742    -0.12940
C1621       C  0.64328501  0.93000780  0.22936225     0.25070
C1622       C  0.60002624  0.91119819  0.23586217    -0.23040
C1623       C  0.57813550  0.86962110  0.24638269     0.19980
C1624       C  0.59936680  0.84785104  0.25123132     0.25020
C1625       C  0.64334359  0.86641234  0.24511255    -0.22980
C1626       C  0.66491776  0.90867203  0.23440432     0.19920
F1627       F  0.70774201  0.93203472  0.23116484    -0.12940
F1628       F  0.66550363  0.96981051  0.21850615    -0.15300
F1629       F  0.57681258  0.80848504  0.26273641    -0.15300
F1630       F  0.53631709  0.85035396  0.25317216    -0.12940
C1631       C  0.76823538  0.89398344  0.20999986     0.25070
C1632       C  0.80108639  0.90758215  0.23023340    -0.23040
C1633       C  0.79038789  0.89980142  0.25862346     0.19980
C1634       C  0.74803613  0.87781050  0.26673860     0.25020
C1635       C  0.71432240  0.86603945  0.24681500    -0.22980
C1636       C  0.72558046  0.87302129  0.21809766     0.19920
F1637       F  0.69503535  0.86038534  0.19772608    -0.12940
F1638       F  0.77711732  0.90015632  0.18220504    -0.15300
F1639       F  0.74126003  0.86547626  0.29396110    -0.15300
F1640       F  0.82087732  0.91279325  0.27903845    -0.12940
C1641       C  0.56465995  0.72420853  0.38897429     0.25070
C1642       C  0.58510291  0.70950022  0.40636831    -0.23040
C1643       C  0.62288229  0.73914464  0.42045812     0.19980
C1644       C  0.64291218  0.78262851  0.41443579     0.25020
C1645       C  0.62641683  0.79722199  0.39299646    -0.22980
C1646       C  0.58411927  0.76776616  0.38326852     0.19920
F1647       F  0.56366707  0.77994729  0.36523058    -0.12940
F1648       F  0.52621025  0.69625579  0.37697370    -0.15300
F1649       F  0.67783297  0.80984013  0.43009901    -0.15300
F1650       F  0.64084896  0.72585981  0.43983757    -0.12940
C1651       C  0.60254056  0.87188525  0.36681680     0.25070
C1652       C  0.62731406  0.86475380  0.38699183    -0.23040
C1653       C  0.62541952  0.87579111  0.41527594     0.19980
C1654       C  0.60616060  0.89908020  0.42207964     0.25020
C1655       C  0.58595217  0.90945595  0.40116211    -0.22980
C1656       C  0.58313820  0.89453814  0.37385589     0.19920
F1657       F  0.56045210  0.90109827  0.35386851    -0.12940
F1658       F  0.59399382  0.85489250  0.34052503    -0.15300
F1659       F  0.60694072  0.91119090  0.44912661    -0.15300
F1660       F  0.64424644  0.86595322  0.43618971    -0.12940
C1661       C  0.72277381  0.90994008  0.40014158     0.25070
C1662       C  0.70066193  0.86752953  0.38919352    -0.23040
C1663       C  0.72587362  0.84928256  0.38354638     0.19980
C1664       C  0.76943239  0.87071897  0.39019490     0.25020
C1665       C  0.78973459  0.91120224  0.40266964    -0.22980
C1666       C  0.76615097  0.93059084  0.40749525     0.19920
F1667       F  0.78575246  0.97080165  0.41820145    -0.12940
F1668       F  0.70444712  0.93367341  0.40179232    -0.15300
F1669       F  0.79145137  0.85108078  0.38519164    -0.15300
F1670       F  0.70815933  0.81001176  0.37161479    -0.12940
C1671       C  0.67818602  0.87890895  0.30272180     0.25070
C1672       C  0.66068921  0.84037401  0.28715634    -0.23040
C1673       C  0.63849930  0.80197576  0.30246740     0.19980
C1674       C  0.64107317  0.80219744  0.33155184     0.25020
C1675       C  0.65615126  0.84035663  0.34711662    -0.22980
C1676       C  0.67604971  0.87888894  0.33183679     0.19920
F1677       F  0.69261222  0.91709850  0.34508974    -0.12940
F1678       F  0.69915686  0.91726150  0.28979602    -0.15300
F1679       F  0.63046852  0.76462185  0.34361136    -0.15300
F1680       F  0.61226834  0.76352757  0.29017419    -0.12940
C1681       C  0.76224785  0.59583025  0.13654926     0.25070
C1682       C  0.79162426  0.63841529  0.14560789    -0.23040
C1683       C  0.77725446  0.65507365  0.16679170     0.19980
C1684       C  0.73382848  0.63488189  0.17299730     0.25020
C1685       C  0.70408352  0.59663341  0.15954089    -0.22980
C1686       C  0.71876697  0.57603274  0.14259921     0.19920
F1687       F  0.69084081  0.53714797  0.13129028    -0.12940
F1688       F  0.77434764  0.57525372  0.11887798    -0.15300
F1689       F  0.72066388  0.65325905  0.19182596    -0.15300
F1690       F  0.80458983  0.69038477  0.18198779    -0.12940
C1691       C  0.92581555  0.77782886  0.15898402     0.25070
C1692       C  0.90679703  0.80171933  0.15365658    -0.23040
C1693       C  0.86594955  0.78160869  0.14147917     0.19980
C1694       C  0.84390328  0.73798848  0.13544095     0.25020
C1695       C  0.86194507  0.71255420  0.14132584    -0.22980
C1696       C  0.90456046  0.73435856  0.15221499     0.19920
F1697       F  0.92796541  0.71567538  0.15425471    -0.12940
F1698       F  0.96623945  0.79720079  0.16959337    -0.15300
F1699       F  0.80434764  0.72044904  0.12367167    -0.15300
F1700       F  0.84659937  0.80391624  0.13612918    -0.12940
C1701       C  0.88908735  0.59602820  0.12441606     0.25070
C1702       C  0.90373308  0.59728787  0.15169252    -0.23040
C1703       C  0.89339199  0.61647796  0.17304961     0.19980
C1704       C  0.87025561  0.63621706  0.16672174     0.25020
C1705       C  0.85906968  0.63931283  0.13856172    -0.22980
C1706       C  0.86622457  0.61550274  0.11791428     0.19920
F1707       F  0.84879041  0.60762054  0.09169206    -0.12940
F1708       F  0.89598888  0.57464831  0.10392527    -0.15300
F1709       F  0.86053557  0.65417141  0.18799426    -0.15300
F1710       F  0.90541655  0.61583301  0.20003729    -0.12940
C1711       C  0.71528222  0.64549317  0.99393040     0.25070
C1712       C  0.69816746  0.60999085  0.47629947    -0.23040
C1713       C  0.72564043  0.59834921  0.46500556     0.19980
C1714       C  0.76875665  0.61953398  0.47296452     0.25020
C1715       C  0.78684890  0.65411397  0.49288004    -0.22980
C1716       C  0.75845283  0.66775164  0.00143415     0.19920
F1717       F  0.76876939  0.69803826  0.02094067    -0.12940
F1718       F  0.68978743  0.65830673  0.00498554    -0.15300
F1719       F  0.79100897  0.60391013  0.46096740    -0.15300
F1720       F  0.71054778  0.56481805  0.44691524    -0.12940
C1721       C  0.90097087  0.74382417  0.48602790     0.25070
C1722       C  0.86173392  0.72292093  0.50089617    -0.23040
C1723       C  0.85240278  0.75179548  0.01416537     0.19980
C1724       C  0.86867763  0.79294453  0.00440358     0.25020
C1725       C  0.90093519  0.80989632  0.48450832    -0.22980
C1726       C  0.91836033  0.78564763  0.47633481     0.19920
F1727       F  0.95464705  0.80371280  0.46112024    -0.12940
F1728       F  0.92729490  0.72835035  0.48531881    -0.15300
F1729       F  0.85373374  0.81651504  0.01565108    -0.15300
F1730       F  0.83511274  0.74424324  0.04009866    -0.12940
C1731       C  0.89675377  0.63268149  0.46503144     0.25070
C1732       C  0.89547740  0.60237754  0.48346989    -0.23040
C1733       C  0.86808985  0.58939705  0.00624021     0.19980
C1734       C  0.84643465  0.61009997  0.01263305     0.25020
C1735       C  0.85289939  0.64612876  0.49697783    -0.22980
C1736       C  0.87328736  0.65209281  0.47073405     0.19920
F1737       F  0.86989548  0.67607576  0.45035451    -0.12940
F1738       F  0.91940162  0.64229226  0.44101040    -0.15300
F1739       F  0.81756878  0.59296202  0.03348498    -0.15300
F1740       F  0.86264295  0.55683413  0.02275376    -0.12940
C1741       C  0.79366151  0.64837951  0.05496399     0.25070
C1742       C  0.83168049  0.67000492  0.03935532    -0.23040
C1743       C  0.87069335  0.68970880  0.05465844     0.19980
C1744       C  0.87154828  0.68917562  0.08380742     0.25020
C1745       C  0.83335465  0.66854048  0.09933774    -0.22980
C1746       C  0.79459790  0.65219513  0.08398695     0.19920
F1747       F  0.75704023  0.64076908  0.09619917    -0.12940
F1748       F  0.75534995  0.62007767  0.04308670    -0.15300
F1749       F  0.91024497  0.70672853  0.09681532    -0.15300
F1750       F  0.90859775  0.70834660  0.04128350    -0.12940
C1751       C  0.83310959  0.67309999  0.50679706    -0.01010
C1752       C  0.83648131  0.66459566  0.63170108    -0.01010
C1753       C  0.65253922  0.84248648  0.87951959    -0.01010
C1754       C  0.66628887  0.84257000  0.75470844    -0.01010
C1755       C  0.92039341  0.58215516  0.97834301     0.43930
N1756       N  0.93683261  0.53430450  0.97701354     0.02820
C1757       C  0.63395347  0.56682051  0.94182817    -0.05050
H1758       H  0.57744662  0.63283165  0.87414528     0.08320
C1759       C  0.95628776  0.97448914  0.84880589    -0.05400
Co1760     Co  0.53071656  0.57073276  0.97255278     0.74180
N1761       N  0.55409028  0.59801594  0.91296235    -0.24580
Co1762     Co  0.55188755  0.53974941  0.90884192     0.74070
C1763       C  0.98732720  0.51018811  0.83161258     0.44040
N1764       N  0.89889352  0.94550949  0.91599242     0.02440
N1765       N  0.50944088  0.52022564  0.87470086     0.02550
N1766       N  0.62147529  0.58793469  0.98333775    -0.45430
H1767       H  0.99073935  0.63638830  0.97630984     0.08300
N1768       N  0.54626042  0.60900352  0.93756849     0.02830
N1769       N  0.54858693  0.98092559  0.90716178     0.02570
C1770       C  0.56360977  0.93178155  0.90785084     0.44180
N1771       N  0.89133135  0.95784919  0.94018565    -0.24040
C1772       C  0.53288480  0.53851172  0.53332671    -0.04960
N1773       N  0.90407214  0.53977607  0.97883914    -0.45140
N1774       N  0.58091250  0.97443648  0.90642382    -0.45370
C1775       C  0.00303088  0.00242105  0.55056434     0.43950
N1776       N  0.58697116  0.57026898  0.96688805     0.02820
N1777       N  0.93118073  0.91931416  0.97083436    -0.24060
N1778       N  0.97385790  0.57051542  0.97606687    -0.24550
N1779       N  0.93844920  0.90640033  0.94685412     0.02460
H1780       H  0.91049715  0.89031918  0.51121341     0.08350
H1781       H  0.49295425  0.87880760  0.90896685     0.08380
N1782       N  0.59404272  0.55855681  0.94236771    -0.24600
N1783       N  0.97279768  0.98340191  0.87511425    -0.24210
N1784       N  0.97653535  0.99525982  0.50876878     0.02820
C1785       C  0.56510710  0.66379513  0.91219191     0.44220
C1786       C  0.85195089  0.95147398  0.93921453    -0.05460
N1787       N  0.51130584  0.94493577  0.90821544    -0.24210
H1788       H  0.92832889  0.94481126  0.84205775     0.08370
N1789       N  0.55317995  0.64802283  0.93808942    -0.45430
H1790       H  0.83598657  0.95614973  0.95653531     0.08360
C1791       C  0.91936641  0.85411869  0.97491851     0.44060
C1792       C  0.96668697  0.60281544  0.97678375    -0.04960
Co1793     Co  0.93352715  0.97644175  0.97454652     0.73820
N1794       N  0.86556961  0.92926445  0.89851931    -0.45150
C1795       C  0.65222021  0.58625197  0.96895291     0.44320
N1796       N  0.96867475  0.97726700  0.53393077    -0.45140
Co1797     Co  0.95477931  0.94444889  0.91106550     0.73890
C1798       C  0.51755753  0.91217837  0.90826627    -0.05470
C1799       C  0.56649086  0.63102453  0.89537077    -0.05030
N1800       N  0.51374606  0.53133677  0.50791740    -0.24560
N1801       N  0.51947553  0.53679584  0.84918303    -0.45320
H1802       H  0.64916701  0.56354397  0.92352227     0.08330
C1803       C  0.91937550  0.88871669  0.98988677    -0.05440
Cl1804     Cl  0.99266854  0.50788784  0.94169298    -0.48450
C1805       C  0.83500976  0.93270014  0.91160857     0.44080
H1806       H  0.56256429  0.56693940  0.53951086     0.08300
N1807       N  0.93142571  0.86723610  0.94831563    -0.45160
C1808       C  0.84598327  0.92683522  0.72179197     0.43930
N1809       N  0.90019728  0.94865559  0.69535933     0.02820
C1810       C  0.59721467  0.98143583  0.73159946    -0.05050
H1811       H  0.55575898  0.57203817  0.79098198     0.08320
C1812       C  0.56089661  0.64575975  0.69121821    -0.05400
Co1813     Co  0.96996618  0.94441891  0.72460158     0.74180
N1814       N  0.52219494  0.52440134  0.75853408    -0.24580
Co1815     Co  0.56341415  0.54275916  0.72410788     0.74070
C1816       C  0.57973275  0.66407642  0.71847530     0.44040
N1817       N  0.97520359  0.55978394  0.65649458     0.02440
N1818       N  0.56282183  0.59863527  0.71743030     0.02550
N1819       N  0.53544045  0.91747393  0.73105227    -0.45430
H1820       H  0.88067459  0.91542803  0.75853482     0.08300
N1821       N  0.98661118  0.98661919  0.75869459     0.02830
N1822       N  0.60308932  0.55880422  0.68972665     0.02570
C1823       C  0.65825442  0.57689064  0.66510103     0.44180
N1824       N  0.93926053  0.52241540  0.65733933    -0.24040
C1825       C  0.94733971  0.86393675  0.68967257    -0.04960
N1826       N  0.86053089  0.94030989  0.69564717    -0.45140
N1827       N  0.64217433  0.56571297  0.69098558    -0.45370
C1828       C  0.92893712  0.84706883  0.66198028     0.43950
N1829       N  0.52856021  0.94927556  0.72863114     0.02820
N1830       N  0.97850832  0.98448627  0.62525985    -0.24060
N1831       N  0.91223381  0.94067658  0.71959384    -0.24550
N1832       N  0.51509066  0.52128769  0.62470599     0.02460
H1833       H  0.93912836  0.93991451  0.59262399     0.08350
H1834       H  0.62764513  0.58809131  0.62593116     0.08380
N1835       N  0.56406750  0.98689898  0.72884769    -0.24600
N1836       N  0.55208360  0.60571836  0.69238231    -0.24210
N1837       N  0.94106981  0.91061224  0.66588403     0.02820
C1838       C  0.99136911  0.51119661  0.80059040     0.44220
C1839       C  0.90642307  0.52859450  0.65761714    -0.05460
N1840       N  0.59240928  0.56594026  0.66457753    -0.24210
H1841       H  0.55852166  0.66108061  0.67246885     0.08370
N1842       N  0.96757917  0.97733909  0.78342694    -0.45430
H1843       H  0.87303157  0.50397619  0.65847344     0.08360
C1844       C  0.00381298  0.99903539  0.58163728     0.44060
C1845       C  0.88029332  0.92679368  0.73765986    -0.04960
Co1846     Co  0.93923844  0.96604840  0.66050845     0.73820
N1847       N  0.96865826  0.59204004  0.65625807    -0.45150
C1848       C  0.57814479  0.93527157  0.73278513     0.44320
N1849       N  0.92526931  0.87744107  0.64852167    -0.45140
Co1850     Co  0.53410501  0.56353703  0.65902101     0.73890
C1851       C  0.62563311  0.57781169  0.64745313    -0.05470
C1852       C  0.52785200  0.54240873  0.78409801    -0.05030
N1853       N  0.95326731  0.90306138  0.69032543    -0.24560
N1854       N  0.58057337  0.63326476  0.73358530    -0.45320
H1855       H  0.63029576  0.00685232  0.73263887     0.08330
C1856       C  0.96900381  0.96786863  0.59912027    -0.05440
Cl1857     Cl  0.00177111  0.50417349  0.69200621    -0.48450
C1858       C  0.92601346  0.57463056  0.65772991     0.44080
H1859       H  0.95170913  0.84791416  0.70732730     0.08300
N1860       N  0.53080569  0.53144978  0.59897984    -0.45160
C1861       C  0.61396101  0.78065651  0.72025650     0.25070
C1862       C  0.64684946  0.79744102  0.74106791    -0.23040
C1863       C  0.66250897  0.77090397  0.74955517     0.19980
C1864       C  0.64049857  0.72764253  0.74248401     0.25020
C1865       C  0.60380483  0.71004919  0.72537370    -0.22980
C1866       C  0.59188546  0.73731305  0.71336358     0.19920
F1867       F  0.55805557  0.72200048  0.69530680    -0.12940
F1868       F  0.60322371  0.80559322  0.70580116    -0.15300
F1869       F  0.65500646  0.70294023  0.75272975    -0.15300
F1870       F  0.69655567  0.78560495  0.76733207    -0.12940
C1871       C  0.64328572  0.93001181  0.72935010     0.25070
C1872       C  0.60002763  0.91120121  0.73585212    -0.23040
C1873       C  0.57813816  0.86962409  0.74637221     0.19980
C1874       C  0.59937069  0.84785539  0.75121965     0.25020
C1875       C  0.64334763  0.86641864  0.74510045    -0.22980
C1876       C  0.66491994  0.90867752  0.73439116     0.19920
F1877       F  0.70774385  0.93204108  0.73115014    -0.12940
F1878       F  0.66550228  0.96981420  0.71849333    -0.15300
F1879       F  0.57681799  0.80848957  0.76272516    -0.15300
F1880       F  0.53632021  0.85035608  0.75316311    -0.12940
C1881       C  0.76824198  0.89399157  0.70999169     0.25070
C1882       C  0.80109186  0.90759171  0.73022619    -0.23040
C1883       C  0.79039280  0.89981288  0.75861607     0.19980
C1884       C  0.74804109  0.87782167  0.76673027     0.25020
C1885       C  0.71432826  0.86604967  0.74680569    -0.22980
C1886       C  0.72558701  0.87302966  0.71808856     0.19920
F1887       F  0.69504250  0.86039162  0.69771635    -0.12940
F1888       F  0.77712506  0.90016231  0.68219695    -0.15300
F1889       F  0.74126430  0.86548723  0.79395275    -0.15300
F1890       F  0.82088157  0.91280621  0.77903167    -0.12940
C1891       C  0.56468440  0.72422609  0.88895428     0.25070
C1892       C  0.58513775  0.70951579  0.90633636    -0.23040
C1893       C  0.62291628  0.73915776  0.92042781     0.19980
C1894       C  0.64293731  0.78264346  0.91441581     0.25020
C1895       C  0.62643583  0.79724025  0.89298310    -0.22980
C1896       C  0.58413727  0.76778513  0.88325666     0.19920
F1897       F  0.56367894  0.77996914  0.86522636    -0.12940
F1898       F  0.52623142  0.69627441  0.87695722    -0.15300
F1899       F  0.67785545  0.80985315  0.93008190    -0.15300
F1900       F  0.64088726  0.72586926  0.93980145    -0.12940
C1901       C  0.60255619  0.87190291  0.86680892     0.25070
C1902       C  0.62733079  0.86477045  0.88698237    -0.23040
C1903       C  0.62543608  0.87580338  0.91526753     0.19980
C1904       C  0.60617405  0.89908818  0.92207418     0.25020
C1905       C  0.58596399  0.90946448  0.90115834    -0.22980
C1906       C  0.58315171  0.89455231  0.87385083     0.19920
F1907       F  0.56046439  0.90111371  0.85386507    -0.12940
F1908       F  0.59400891  0.85491296  0.84051635    -0.15300
F1909       F  0.60695258  0.91119398  0.94912220    -0.15300
F1910       F  0.64426433  0.86596397  0.93617957    -0.12940
C1911       C  0.72278985  0.90995529  0.90013153     0.25070
C1912       C  0.70067849  0.86754704  0.88917990    -0.23040
C1913       C  0.72588969  0.84930047  0.88352997     0.19980
C1914       C  0.76944652  0.87073295  0.89018189     0.25020
C1915       C  0.78974741  0.91121219  0.90266201    -0.22980
C1916       C  0.76616550  0.93060237  0.90748839     0.19920
F1917       F  0.78576709  0.97081056  0.91819906    -0.12940
F1918       F  0.70446394  0.93368925  0.90178371    -0.15300
F1919       F  0.79146442  0.85109397  0.88517733    -0.15300
F1920       F  0.70817636  0.81003261  0.87159408    -0.12940
C1921       C  0.67819276  0.87892355  0.80270944     0.25070
C1922       C  0.66069517  0.84038721  0.78714537    -0.23040
C1923       C  0.63850589  0.80199017  0.80245713     0.19980
C1924       C  0.64108469  0.80221376  0.83154085     0.25020
C1925       C  0.65616428  0.84037390  0.84710484    -0.22980
C1926       C  0.67606062  0.87890548  0.83182450     0.19920
F1927       F  0.69262541  0.91711558  0.84507720    -0.12940
F1928       F  0.69916199  0.91727511  0.78978236    -0.15300
F1929       F  0.63048552  0.76463945  0.84360002    -0.15300
F1930       F  0.61227215  0.76354143  0.79016531    -0.12940
C1931       C  0.76224325  0.59582806  0.63655510     0.25070
C1932       C  0.79161957  0.63841411  0.64561183    -0.23040
C1933       C  0.77725183  0.65507243  0.66679708     0.19980
C1934       C  0.73382684  0.63487843  0.67300676     0.25020
C1935       C  0.70408056  0.59662808  0.65955269    -0.22980
C1936       C  0.71876306  0.57602852  0.64260877     0.19920
F1937       F  0.69083652  0.53714292  0.63130113    -0.12940
F1938       F  0.77434212  0.57525253  0.61888204    -0.15300
F1939       F  0.72066434  0.65325574  0.69183679    -0.15300
F1940       F  0.80458846  0.69038573  0.68199087    -0.12940
C1941       C  0.92581330  0.77783007  0.65897923     0.25070
C1942       C  0.90679430  0.80172048  0.65365355    -0.23040
C1943       C  0.86594458  0.78160913  0.64147945     0.19980
C1944       C  0.84389671  0.73798823  0.63544278     0.25020
C1945       C  0.86193929  0.71255414  0.64132577    -0.22980
C1946       C  0.90455672  0.73435927  0.65221158     0.19920
F1947       F  0.92796214  0.71567633  0.65424896    -0.12940
F1948       F  0.96623906  0.79720252  0.66958538    -0.15300
F1949       F  0.80433905  0.72044801  0.62367657    -0.15300
F1950       F  0.84659402  0.80391677  0.63613123    -0.12940
C1951       C  0.88908949  0.59603460  0.62441532     0.25070
C1952       C  0.90373437  0.59729345  0.65169219    -0.23040
C1953       C  0.89339111  0.61648199  0.67304905     0.19980
C1954       C  0.87025321  0.63621949  0.66672111     0.25020
C1955       C  0.85906622  0.63931464  0.63856117    -0.22980
C1956       C  0.86622479  0.61550781  0.61791333     0.19920
F1957       F  0.84879238  0.60762737  0.59169067    -0.12940
F1958       F  0.89599310  0.57465630  0.60392453    -0.15300
F1959       F  0.86053242  0.65417293  0.68799379    -0.15300
F1960       F  0.90541493  0.61583686  0.70003689    -0.12940
C1961       C  0.71524107  0.64545350  0.49393184     0.25070
C1962       C  0.69819893  0.61002642  0.97630131    -0.23040
C1963       C  0.72566193  0.59836880  0.96501121     0.19980
C1964       C  0.76877740  0.61954388  0.97296906     0.25020
C1965       C  0.78687943  0.65412886  0.99288065    -0.22980
C1966       C  0.75841226  0.66772322  0.50143508     0.19920
F1967       F  0.76872092  0.69800677  0.52094259    -0.12940
F1968       F  0.68973658  0.65825350  0.50498911    -0.15300
F1969       F  0.79101705  0.60390194  0.96097703    -0.15300
F1970       F  0.71056028  0.56482989  0.94692682    -0.12940
C1971       C  0.90100078  0.74382532  0.98602807     0.25070
C1972       C  0.86176865  0.72292521  0.00090125    -0.23040
C1973       C  0.85235853  0.75178878  0.51415365     0.19980
C1974       C  0.86863590  0.79293860  0.50439141     0.25020
C1975       C  0.90096761  0.80989918  0.98451387    -0.22980
C1976       C  0.91838923  0.78564909  0.97633541     0.19920
F1977       F  0.95466984  0.80371200  0.96111464    -0.12940
F1978       F  0.92731980  0.72834597  0.98531150    -0.15300
F1979       F  0.85368827  0.81650888  0.51563401    -0.15300
F1980       F  0.83506515  0.74423818  0.54008562    -0.12940
C1981       C  0.89674743  0.63266505  0.96501228     0.25070
C1982       C  0.89546469  0.60235080  0.98344377    -0.23040
C1983       C  0.86808970  0.58941607  0.50625969     0.19980
C1984       C  0.84641652  0.61010458  0.51264069     0.25020
C1985       C  0.85292084  0.64612882  0.99697396    -0.22980
C1986       C  0.87329715  0.65208973  0.97072585     0.19920
F1987       F  0.86990559  0.67607952  0.95035135    -0.12940
F1988       F  0.91938647  0.64227409  0.94098742    -0.15300
F1989       F  0.81753944  0.59295950  0.53348579    -0.15300
F1990       F  0.86264554  0.55685785  0.52277719    -0.12940
C1991       C  0.79364111  0.64837811  0.55496714     0.25070
C1992       C  0.83165697  0.67000801  0.53935554    -0.23040
C1993       C  0.87067220  0.68971632  0.55465640     0.19980
C1994       C  0.87153208  0.68917780  0.58380529     0.25020
C1995       C  0.83334154  0.66853819  0.59933850    -0.22980
C1996       C  0.79458205  0.65219157  0.58399057     0.19920
F1997       F  0.75702552  0.64076144  0.59620599    -0.12940
F1998       F  0.75532922  0.62007107  0.54309266    -0.15300
F1999       F  0.91023122  0.70673169  0.59680990    -0.15300
F2000       F  0.90857488  0.70835922  0.54127932    -0.12940
loop_ 
_geom_bond_atom_site_label_1 
_geom_bond_atom_site_label_2 
_geom_bond_distance 
_geom_bond_site_symmetry_2 
_ccdc_geom_bond_type 
C1          C242   1.554       .  S
C1          C465   1.596   1_554  S
C1          C472   1.594       .  S
C1          C485   1.578   1_554  S
C2          C182   1.567       .  S
C2          C195   1.570       .  S
C2          C205   1.567       .  S
C2          C245   1.556       .  S
C3          C145   1.566       .  S
C3          C152   1.566       .  S
C3          C162   1.571       .  S
C3          C175   1.556       .  S
C4          C112   1.561       .  S
C4          C125   1.564       .  S
C4          C135   1.559       .  S
C4          C172   1.557       .  S
C5           N23   1.347       .  A
C5           C42   1.460       .  S
C5          C232   1.470       .  S
N6           N23   1.323       .  A
N6           N28   1.319       .  A
N6         Co543   2.070   1_545  S
C7           N32   1.333       .  A
C7           C45   1.451       .  S
C7           H52   1.081       .  S
H8           C49   1.082       .  S
C9           N33   1.348       .  A
C9          C513   1.469       .  S
C9           H38   1.083       .  S
Co10         N18   2.066       .  S
Co10         N26   2.096       .  S
Co10       N1028   2.093   1_455  S
Co10        N300   2.098       .  S
Co10      Cl1054   2.457   1_455  S
N11          C49   1.347       .  A
N11          N18   1.322       .  A
N11         Co12   2.110       .  S
Co12         N15   2.087       .  S
Co12         N32   2.060       .  S
Co12        N519   2.103   1_545  S
Co12      Cl1054   2.445   1_455  S
C13        N1051   1.350       .  A
C13          C88   1.485       .  S
C13         C509   1.469   1_545  S
N14          N21   1.322       .  A
N14          N44   1.326       .  A
N14         Co47   2.089       .  S
N15          N51   1.327       .  A
N15        N1533   1.321   1_445  A
N16          C45   1.357       .  A
N16          N26   1.326       .  A
H17          C42   1.081       .  S
N18          N39   1.320       .  A
N19          N37   1.320       .  A
N19          N24   1.328       .  A
N19        Co512   2.103       .  S
C20          N24   1.353       .  A
C20          C48   1.453       .  S
C20         C155   1.469       .  S
N21          C36   1.339       .  A
N21         Co43   2.092       .  S
C22          N50   1.346       .  A
C22        C1525   1.465       .  S
C22          H56   1.083       .  S
C25          N46   1.354       .  A
C25          C94   1.486       .  S
C25        C1522   1.465       .  S
N26          N32   1.319       .  A
N27          C53   1.334       .  A
N27          N29   1.319       .  A
N27         Co43   2.064       .  S
N28          C42   1.344       .  A
N28       Co1010   2.093       .  S
N29          N57   1.326       .  A
N29         Co47   2.091       .  S
H30         C303   1.081   1_554  S
H31          C48   1.081   1_655  S
N33        N1515   1.321       .  A
N33         Co47   2.112       .  S
N34          N46   1.329       .  A
N34        N1550   1.320       .  A
N34        Co293   2.103   1_554  S
C35          N39   1.341       .  A
C35          C49   1.469       .  S
C35         C142   1.470       .  S
C36          C55   1.457       .  S
C36          H40   1.082       .  S
N37          C48   1.338       .  A
N37       Co1047   2.073   1_455  S
C41          N57   1.351       .  A
C41          C53   1.458       .  S
C41         C225   1.474       .  S
Co43        N506   2.070       .  S
Co43        N284   2.103       .  S
Co43       Cl554   2.445       .  S
N44          C55   1.353       .  A
C45         C212   1.478       .  S
Co47       N1037   2.073       .  S
Co47       Cl554   2.462       .  S
N50        N1534   1.320   1_445  A
N50        Co260   2.098   1_554  S
N51        C1013   1.350   1_455  A
C53         H280   1.081       .  S
Cl54      Co1010   2.457       .  S
Cl54      Co1012   2.445       .  S
Cl54       Co543   2.445   1_545  S
Cl54       Co547   2.462   1_545  S
C55         C165   1.477       .  S
C58          N76   1.350       .  A
C58          C95   1.461       .  S
C58         C132   1.477       .  S
N59          N76   1.323       .  A
N59          N81   1.317       .  A
N59         Co96   2.080       .  S
C60          N85   1.338       .  A
C60          C98   1.462       .  S
C60         H105   1.080       .  S
H61         C102   1.083       .  S
C62          N86   1.334       .  A
C62          C66   1.452       .  S
C62          H91   1.082       .  S
Co63         N81   2.062       .  S
Co63         N71   2.098       .  S
Co63        N103   2.086       .  S
Co63       N1079   2.071       .  S
Co63       Cl607   2.444       .  S
N64         C102   1.346       .  A
N64        N1571   1.321   1_445  A
N64         Co65   2.105       .  S
Co65         N68   2.090       .  S
Co65         N72   2.078       .  S
Co65        N585   2.078   1_545  S
Co65      Cl1107   2.457       .  S
C66         N104   1.356       .  A
C66         C115   1.477       .  S
N67          N74   1.320       .  A
N67          N97   1.327       .  A
N67       Co1100   2.096       .  S
N68          N86   1.319       .  A
N68         N104   1.326       .  A
N69          C98   1.350       .  A
N69          N79   1.323       .  A
H70          C95   1.081       .  S
N71          N92   1.328       .  A
N71        N1564   1.321       .  A
N72          N90   1.323       .  A
N72          N77   1.321       .  A
C73          N77   1.343       .  A
C73         C101   1.469       .  S
C73         C185   1.472       .  S
N74          C89   1.338       .  A
N74        Co596   2.077   1_545  S
C75         N103   1.338       .  A
C75          C78   1.456       .  S
C75         H109   1.084       .  S
C78          N99   1.353       .  A
C78         C192   1.475       .  S
N79          N85   1.317       .  A
N79       Co1063   2.071   1_455  S
N80         C106   1.345       .  A
N80        N1582   1.321       .  A
N80         Co96   2.098       .  S
N81          C95   1.334       .  A
N82         N110   1.329       .  A
N82        N1580   1.321   1_445  A
N82        Co100   2.100       .  S
H83         C106   1.083       .  S
H84         C101   1.082       .  S
N85        Co565   2.078       .  S
N86        Co100   2.066       .  S
N87          N99   1.326       .  A
N87         N103   1.322       .  A
N87         Co96   2.089       .  S
C88         N592   1.351   1_545  A
C88        C1102   1.468       .  S
C89         C108   1.454       .  S
C89          H93   1.082       .  S
N90         C101   1.347       .  A
N90        Co100   2.109       .  S
N92         C588   1.351       .  A
C94        N1610   1.354       .  A
C94         C106   1.464       .  S
Co96        N574   2.077       .  S
Co96       Cl607   2.458       .  S
N97         C108   1.351       .  A
C98         C122   1.479       .  S
Co100      N1067   2.096   1_455  S
Co100     Cl1107   2.447       .  S
C102       C1088   1.468   1_455  S
Cl107      Co563   2.444   1_545  S
Cl107     Co1065   2.457       .  S
Cl107      Co596   2.458   1_545  S
Cl107     Co1100   2.447       .  S
C108        C202   1.466       .  S
N110       C1594   1.353   1_545  A
C111        C112   1.419       .  A
C111        C116   1.397       .  A
C111        F118   1.356       .  S
C112        C113   1.423       .  A
C113        C114   1.396       .  A
C113        F120   1.356       .  S
C114        C115   1.400       .  A
C114        F119   1.358       .  S
C115        C116   1.405       .  A
C116        F117   1.358       .  S
C121        C122   1.402       .  A
C121        C126   1.396       .  A
C121        F128   1.357       .  S
C122        C123   1.401       .  A
C123        C124   1.395       .  A
C123        F130   1.358       .  S
C124        C125   1.422       .  A
C124        F129   1.358       .  S
C125        C126   1.425       .  A
C126        F127   1.354       .  S
C131        C132   1.405       .  A
C131        C136   1.398       .  A
C131        F138   1.358       .  S
C132        C133   1.400       .  A
C133        C134   1.388       .  A
C133        F140   1.357       .  S
C134        C135   1.425       .  A
C134        F139   1.356       .  S
C135        C136   1.418       .  A
C136        F137   1.358       .  S
C141        C142   1.396       .  A
C141        C146   1.401       .  A
C141        F148   1.358       .  S
C142        C143   1.401       .  A
C143        C144   1.400       .  A
C143        F150   1.358       .  S
C144        C145   1.421       .  A
C144        F149   1.356       .  S
C145        C146   1.424       .  A
C146        F147   1.355       .  S
C151        C152   1.430       .  A
C151        C156   1.392       .  A
C151        F158   1.357       .  S
C152        C153   1.419       .  A
C153        C154   1.405       .  A
C153        F160   1.357       .  S
C154        C155   1.401       .  A
C154        F159   1.357       .  S
C155        C156   1.392       .  A
C156        F157   1.359       .  S
C161        C162   1.425       .  A
C161        C166   1.401       .  A
C161        F168   1.354       .  S
C162        C163   1.426       .  A
C163        C164   1.398       .  A
C163        F170   1.357       .  S
C164        C165   1.398       .  A
C164        F169   1.358       .  S
C165        C166   1.400       .  A
C166        F167   1.358       .  S
C171        C172   1.417       .  A
C171        C176   1.389       .  A
C171        F178   1.357       .  S
C172        C173   1.416       .  A
C173        C174   1.386       .  A
C173        F180   1.355       .  S
C174        C175   1.415       .  A
C174        F179   1.355       .  S
C175        C176   1.416       .  A
C176        F177   1.357       .  S
C181        C182   1.424       .  A
C181        C186   1.401       .  A
C181        F188   1.355       .  S
C182        C183   1.421       .  A
C183        C184   1.400       .  A
C183        F190   1.356       .  S
C184        C185   1.401       .  A
C184        F189   1.358       .  S
C185        C186   1.397       .  A
C186        F187   1.358       .  S
C191        C192   1.399       .  A
C191        C196   1.400       .  A
C191        F198   1.358       .  S
C192        C193   1.398       .  A
C193        C194   1.397       .  A
C193        F200   1.358       .  S
C194        C195   1.425       .  A
C194        F199   1.358       .  S
C195        C196   1.426       .  A
C196        F197   1.354       .  S
C201        C202   1.391       .  A
C201        C206   1.390       .  A
C201        F208   1.359       .  S
C202        C203   1.402       .  A
C203        C204   1.405       .  A
C203        F210   1.357       .  S
C204        C205   1.419       .  A
C204        F209   1.358       .  S
C205        C206   1.431       .  A
C206        F207   1.356       .  S
C211        C216   1.394   1_556  A
C211        C462   1.390       .  A
C211        F218   1.359   1_556  S
C212        C213   1.398       .  A
C212        C461   1.390       .  A
C213        C214   1.399       .  A
C213        F220   1.358       .  S
C214        C215   1.435       .  A
C214        F219   1.351       .  S
C215        C251   1.596       .  S
C215        C466   1.436       .  A
C216        C465   1.436   1_554  A
C216        F217   1.340       .  S
C221        C222   1.429       .  A
C221        C226   1.403       .  A
C221        F228   1.354       .  S
C222        C251   1.594       .  S
C222        C473   1.424       .  A
C223        C224   1.388       .  A
C223        C472   1.424       .  A
C223        F230   1.357       .  S
C224        C475   1.397   1_554  A
C224        F229   1.357       .  S
C225        C226   1.398       .  A
C225        C474   1.397       .  A
C226        F227   1.358       .  S
C231        C232   1.400       .  A
C231        C236   1.404       .  A
C231        F238   1.358       .  S
C232        C483   1.395       .  A
C233        C234   1.393       .  A
C233        C482   1.395   1_554  A
C233        F240   1.359       .  S
C234        C485   1.429   1_554  A
C234        F239   1.356       .  S
C235        C251   1.578       .  S
C235        C236   1.422       .  A
C235        C484   1.429       .  A
C236        F237   1.359       .  S
C241        C242   1.416       .  A
C241        C246   1.387       .  A
C241        F248   1.355       .  S
C242        C243   1.414       .  A
C243        C244   1.388       .  A
C243        F250   1.357       .  S
C244        C245   1.417       .  A
C244        F249   1.357       .  S
C245        C246   1.415       .  A
C246        F247   1.354       .  S
C251        C492   1.554       .  S
C252        C432   1.567       .  S
C252        C445   1.570       .  S
C252        C455   1.567       .  S
C252        C495   1.556       .  S
C253        C395   1.566       .  S
C253        C402   1.566       .  S
C253        C412   1.571       .  S
C253        C425   1.556       .  S
C254        C362   1.561       .  S
C254        C375   1.564       .  S
C254        C385   1.559       .  S
C254        C422   1.557       .  S
C255        N273   1.347       .  A
C255        C292   1.460       .  S
C255        C482   1.470       .  S
N256        N273   1.323       .  A
N256        N278   1.319       .  A
N256       Co793   2.070   1_545  S
C257        N282   1.333       .  A
C257        C295   1.451       .  S
C257        H302   1.081       .  S
H258        C299   1.082       .  S
C259        N283   1.348       .  A
C259        C763   1.469       .  S
C259        H288   1.083       .  S
Co260      N1278   2.093   1_455  S
Co260       N268   2.066       .  S
Co260       N276   2.096       .  S
Co260     Cl1304   2.457   1_455  S
N261        C299   1.347       .  A
N261        N268   1.322       .  A
N261       Co262   2.110       .  S
Co262       N265   2.087       .  S
Co262       N282   2.060       .  S
Co262       N769   2.103   1_545  S
Co262     Cl1304   2.445   1_455  S
C263       N1301   1.350       .  A
C263        C759   1.469   1_545  S
C263        C338   1.485       .  S
N264        N271   1.322       .  A
N264        N294   1.326       .  A
N264       Co297   2.089       .  S
N265       N1783   1.321   1_445  A
N265        N301   1.327       .  A
N266        C295   1.357       .  A
N266        N276   1.326       .  A
H267        C292   1.081       .  S
N268        N289   1.320       .  A
N269        N287   1.320       .  A
N269        N274   1.328       .  A
N269       Co762   2.103       .  S
C270        N274   1.353       .  A
C270        C298   1.453       .  S
C270        C405   1.469       .  S
N271        C286   1.339       .  A
N271       Co293   2.091       .  S
C272        N300   1.346       .  A
C272       C1775   1.465       .  S
C272        H306   1.083       .  S
C275        N296   1.354       .  A
C275       C1772   1.465       .  S
C275        C344   1.486       .  S
N276        N282   1.319       .  A
N277        C303   1.334       .  A
N277        N279   1.319       .  A
N277       Co293   2.063       .  S
N278        C292   1.344       .  A
N278      Co1260   2.093       .  S
N279        N307   1.326       .  A
N279       Co297   2.091       .  S
H281        C298   1.081   1_655  S
N283       N1765   1.321       .  A
N283       Co297   2.112       .  S
N284        N296   1.329       .  A
N284       N1800   1.320       .  A
C285        N289   1.341       .  A
C285        C299   1.469       .  S
C285        C392   1.470       .  S
C286        C305   1.457       .  S
C286        H290   1.082       .  S
N287        C298   1.338       .  A
N287      Co1297   2.073   1_455  S
C291        N307   1.351       .  A
C291        C303   1.458       .  S
C291        C475   1.474       .  S
Co293       N756   2.071       .  S
Co293      Cl804   2.444       .  S
N294        C305   1.353       .  A
C295        C462   1.478       .  S
Co297      N1287   2.073       .  S
Co297      Cl804   2.463       .  S
N300       N1784   1.320   1_445  A
N301       C1263   1.350   1_455  A
Cl304     Co1260   2.457       .  S
Cl304     Co1262   2.445       .  S
Cl304      Co793   2.445   1_545  S
Cl304      Co797   2.461   1_545  S
C305        C415   1.477       .  S
C308        N326   1.350       .  A
C308        C345   1.461       .  S
C308        C382   1.477       .  S
N309        N326   1.323       .  A
N309        N331   1.317       .  A
N309       Co346   2.080       .  S
C310        N335   1.338       .  A
C310        C348   1.462       .  S
C310        H355   1.080       .  S
H311        C352   1.083       .  S
C312        N336   1.334       .  A
C312        C316   1.452       .  S
C312        H341   1.082       .  S
Co313       N331   2.062       .  S
Co313       N321   2.098       .  S
Co313       N353   2.086       .  S
Co313      N1329   2.071       .  S
Co313      Cl857   2.444       .  S
N314        C352   1.346       .  A
N314       N1821   1.321   1_445  A
N314       Co315   2.106       .  S
Co315       N318   2.090       .  S
Co315       N835   2.078   1_545  S
Co315       N322   2.078       .  S
Co315     Cl1357   2.457       .  S
C316        N354   1.356       .  A
C316        C365   1.477       .  S
N317        N324   1.320       .  A
N317        N347   1.327       .  A
N317      Co1350   2.096       .  S
N318        N336   1.319       .  A
N318        N354   1.326       .  A
N319        C348   1.350       .  A
N319        N329   1.323       .  A
H320        C345   1.081       .  S
N321       N1814   1.321       .  A
N321        N342   1.328       .  A
N322        N340   1.323       .  A
N322        N327   1.321       .  A
C323        N327   1.343       .  A
C323        C351   1.469       .  S
C323        C435   1.472       .  S
N324        C339   1.338       .  A
N324       Co846   2.077   1_545  S
C325        N353   1.338       .  A
C325        C328   1.456       .  S
C325        H359   1.084       .  S
C328        N349   1.353       .  A
C328        C442   1.475       .  S
N329        N335   1.317       .  A
N329      Co1313   2.071   1_455  S
N330        C356   1.345       .  A
N330       N1832   1.321       .  A
N330       Co346   2.098       .  S
N331        C345   1.334       .  A
N332       N1830   1.321   1_445  A
N332        N360   1.329       .  A
N332       Co350   2.100       .  S
H333        C356   1.083       .  S
H334        C351   1.082       .  S
N335       Co815   2.078       .  S
N336       Co350   2.066       .  S
N337        N349   1.326       .  A
N337        N353   1.322       .  A
N337       Co346   2.089       .  S
C338        N842   1.351   1_545  A
C338       C1352   1.468       .  S
C339        C358   1.454       .  S
C339        H343   1.082       .  S
N340        C351   1.347       .  A
N340       Co350   2.109       .  S
N342        C838   1.351       .  A
C344       N1860   1.353       .  A
C344        C356   1.464       .  S
Co346       N824   2.077       .  S
Co346      Cl857   2.458       .  S
N347        C358   1.351       .  A
C348        C372   1.479       .  S
Co350      N1317   2.096   1_455  S
Co350     Cl1357   2.447       .  S
C352       C1338   1.468   1_455  S
Cl357      Co813   2.444   1_545  S
Cl357     Co1315   2.457       .  S
Cl357      Co846   2.458   1_545  S
Cl357     Co1350   2.447       .  S
C358        C452   1.466       .  S
N360       C1844   1.353   1_545  A
C361        C362   1.419       .  A
C361        C366   1.397       .  A
C361        F368   1.356       .  S
C362        C363   1.423       .  A
C363        C364   1.396       .  A
C363        F370   1.356       .  S
C364        C365   1.400       .  A
C364        F369   1.358       .  S
C365        C366   1.405       .  A
C366        F367   1.358       .  S
C371        C372   1.402       .  A
C371        C376   1.396       .  A
C371        F378   1.357       .  S
C372        C373   1.401       .  A
C373        C374   1.395       .  A
C373        F380   1.358       .  S
C374        C375   1.422       .  A
C374        F379   1.358       .  S
C375        C376   1.425       .  A
C376        F377   1.354       .  S
C381        C382   1.405       .  A
C381        C386   1.398       .  A
C381        F388   1.358       .  S
C382        C383   1.400       .  A
C383        C384   1.388       .  A
C383        F390   1.357       .  S
C384        C385   1.425       .  A
C384        F389   1.356       .  S
C385        C386   1.418       .  A
C386        F387   1.358       .  S
C391        C392   1.396       .  A
C391        C396   1.401       .  A
C391        F398   1.358       .  S
C392        C393   1.401       .  A
C393        C394   1.400       .  A
C393        F400   1.358       .  S
C394        C395   1.421       .  A
C394        F399   1.356       .  S
C395        C396   1.424       .  A
C396        F397   1.355       .  S
C401        C402   1.430       .  A
C401        C406   1.392       .  A
C401        F408   1.357       .  S
C402        C403   1.419       .  A
C403        C404   1.405       .  A
C403        F410   1.357       .  S
C404        C405   1.401       .  A
C404        F409   1.357       .  S
C405        C406   1.392       .  A
C406        F407   1.359       .  S
C411        C412   1.425       .  A
C411        C416   1.401       .  A
C411        F418   1.354       .  S
C412        C413   1.426       .  A
C413        C414   1.398       .  A
C413        F420   1.357       .  S
C414        C415   1.398       .  A
C414        F419   1.358       .  S
C415        C416   1.400       .  A
C416        F417   1.358       .  S
C421        C422   1.417       .  A
C421        C426   1.389       .  A
C421        F428   1.357       .  S
C422        C423   1.416       .  A
C423        C424   1.386       .  A
C423        F430   1.355       .  S
C424        C425   1.415       .  A
C424        F429   1.355       .  S
C425        C426   1.416       .  A
C426        F427   1.357       .  S
C431        C432   1.424       .  A
C431        C436   1.401       .  A
C431        F438   1.355       .  S
C432        C433   1.421       .  A
C433        C434   1.400       .  A
C433        F440   1.356       .  S
C434        C435   1.401       .  A
C434        F439   1.358       .  S
C435        C436   1.397       .  A
C436        F437   1.358       .  S
C441        C442   1.399       .  A
C441        C446   1.400       .  A
C441        F448   1.358       .  S
C442        C443   1.398       .  A
C443        C444   1.397       .  A
C443        F450   1.358       .  S
C444        C445   1.425       .  A
C444        F449   1.358       .  S
C445        C446   1.426       .  A
C446        F447   1.354       .  S
C451        C452   1.391       .  A
C451        C456   1.390       .  A
C451        F458   1.359       .  S
C452        C453   1.402       .  A
C453        C454   1.405       .  A
C453        F460   1.357       .  S
C454        C455   1.419       .  A
C454        F459   1.358       .  S
C455        C456   1.431       .  A
C456        F457   1.356       .  S
C461        C466   1.394       .  A
C461        F468   1.359       .  S
C462        C463   1.398       .  A
C463        C464   1.399       .  A
C463        F470   1.358       .  S
C464        C465   1.435       .  A
C464        F469   1.351       .  S
C466        F467   1.340       .  S
C471        C472   1.429   1_556  A
C471        C476   1.403       .  A
C471        F478   1.354       .  S
C473        C474   1.388       .  A
C473        F480   1.357       .  S
C474        F479   1.357       .  S
C475        C476   1.398       .  A
C476        F477   1.358       .  S
C481        C482   1.400       .  A
C481        C486   1.404       .  A
C481        F488   1.358       .  S
C483        C484   1.393       .  A
C483        F490   1.359       .  S
C484        F489   1.356       .  S
C485        C486   1.422       .  A
C486        F487   1.359       .  S
C491        C492   1.416       .  A
C491        C496   1.387       .  A
C491        F498   1.355       .  S
C492        C493   1.414       .  A
C493        C494   1.388       .  A
C493        F500   1.357       .  S
C494        C495   1.417       .  A
C494        F499   1.357       .  S
C495        C496   1.415       .  A
C496        F497   1.354       .  S
C501        C965   1.596   1_554  S
C501        C972   1.594       .  S
C501        C985   1.578   1_554  S
C501        C742   1.554       .  S
C502        C682   1.567       .  S
C502        C695   1.570       .  S
C502        C705   1.567       .  S
C502        C745   1.556       .  S
C503        C645   1.566       .  S
C503        C652   1.566       .  S
C503        C662   1.571       .  S
C503        C675   1.556       .  S
C504        C612   1.561       .  S
C504        C625   1.564       .  S
C504        C635   1.559       .  S
C504        C672   1.557       .  S
C505        N523   1.347       .  A
C505        C542   1.460       .  S
C505        C732   1.470       .  S
N506        N523   1.323       .  A
N506        N528   1.319       .  A
C507        N532   1.333       .  A
C507        C545   1.451       .  S
C507        H552   1.081       .  S
H508        C549   1.082       .  S
C509        N533   1.348       .  A
C509        H538   1.083       .  S
Co510      N1528   2.093   1_455  S
Co510       N518   2.066       .  S
Co510       N800   2.098       .  S
Co510       N526   2.096       .  S
Co510     Cl1554   2.457   1_455  S
N511        C549   1.347       .  A
N511        N518   1.322       .  A
N511       Co512   2.110       .  S
Co512       N515   2.087       .  S
Co512       N532   2.060       .  S
Co512     Cl1554   2.445   1_455  S
C513       N1551   1.350       .  A
C513        C588   1.485       .  S
N514        N521   1.322       .  A
N514        N544   1.326       .  A
N514       Co547   2.089       .  S
N515       N1033   1.321   1_455  A
N515        N551   1.327       .  A
N516        C545   1.357       .  A
N516        N526   1.326       .  A
H517        C542   1.081       .  S
N518        N539   1.320       .  A
N519        N537   1.320       .  A
N519        N524   1.328       .  A
C520        N524   1.353       .  A
C520        C548   1.453       .  S
C520        C655   1.469       .  S
N521        C536   1.339       .  A
N521       Co543   2.092       .  S
C522        N550   1.346       .  A
C522       C1025   1.465       .  S
C522        H556   1.083       .  S
C525        N546   1.354   1_545  A
C525       C1022   1.465       .  S
C525        C594   1.486   1_545  S
N526        N532   1.319       .  A
N527        C553   1.334       .  A
N527        N529   1.319       .  A
N527       Co543   2.064       .  S
N528        C542   1.344       .  A
N528      Co1510   2.093       .  S
N529        N557   1.326       .  A
N529       Co547   2.091       .  S
H530        C803   1.081   1_554  S
H531        C548   1.081   1_655  S
N533       N1015   1.321   1_565  A
N533       Co547   2.112       .  S
N534        N546   1.329       .  A
N534       N1050   1.320   1_565  A
N534       Co793   2.103   1_554  S
C535        N539   1.341       .  A
C535        C549   1.469       .  S
C535        C642   1.470       .  S
C536        C555   1.457       .  S
C536        H540   1.082       .  S
N537        C548   1.338       .  A
N537      Co1547   2.073   1_455  S
C541        N557   1.351       .  A
C541        C553   1.458       .  S
C541        C725   1.474       .  S
Co543       N784   2.103       .  S
N544        C555   1.353       .  A
C545        C712   1.478       .  S
Co547      N1537   2.073       .  S
N550       N1034   1.320   1_455  A
N550       Co760   2.098   1_554  S
N551       C1513   1.350   1_455  A
C553        H780   1.081       .  S
Cl554     Co1510   2.457       .  S
Cl554     Co1512   2.445       .  S
C555        C665   1.477       .  S
C558        N576   1.350       .  A
C558        C595   1.461       .  S
C558        C632   1.477       .  S
N559        N576   1.323       .  A
N559        N581   1.317       .  A
N559       Co596   2.080       .  S
C560        N585   1.338       .  A
C560        C598   1.462       .  S
C560        H605   1.080   1_565  S
H561        C602   1.083       .  S
C562        N586   1.334       .  A
C562        C566   1.452       .  S
C562        H591   1.082       .  S
Co563       N581   2.062       .  S
Co563       N571   2.098       .  S
Co563       N603   2.086       .  S
Co563      N1579   2.071       .  S
N564        C602   1.346       .  A
N564       N1071   1.321   1_455  A
N564       Co565   2.106       .  S
Co565       N568   2.090       .  S
Co565       N572   2.078       .  S
Co565     Cl1607   2.457       .  S
C566        N604   1.356       .  A
C566        C615   1.477       .  S
N567        N574   1.320       .  A
N567        N597   1.327       .  A
N567      Co1600   2.096       .  S
N568        N586   1.319       .  A
N568        N604   1.326       .  A
N569        C598   1.350       .  A
N569        N579   1.323       .  A
H570        C595   1.081       .  S
N571       N1064   1.321   1_565  A
N571        N592   1.328       .  A
N572        N590   1.323       .  A
N572        N577   1.321       .  A
C573        N577   1.343       .  A
C573        C601   1.469       .  S
C573        C685   1.472       .  S
N574        C589   1.338       .  A
C575        N603   1.338       .  A
C575        C578   1.456       .  S
C575        H609   1.084       .  S
C578        N599   1.353       .  A
C578        C692   1.475       .  S
N579        N585   1.317       .  A
N579      Co1563   2.071   1_455  S
N580        C606   1.345       .  A
N580       N1082   1.321   1_565  A
N580       Co596   2.098       .  S
N581        C595   1.334       .  A
N582       N1080   1.321   1_455  A
N582        N610   1.329       .  A
N582       Co600   2.100       .  S
H583        C606   1.083       .  S
H584        C601   1.082       .  S
N586       Co600   2.066       .  S
N587        N599   1.326       .  A
N587        N603   1.322       .  A
N587       Co596   2.089       .  S
C588       C1602   1.468       .  S
C589        C608   1.454       .  S
C589        H593   1.082       .  S
N590        C601   1.347       .  A
N590       Co600   2.109       .  S
C594       N1110   1.353   1_565  A
C594        C606   1.463       .  S
N597        C608   1.351       .  A
C598        C622   1.479       .  S
Co600      N1567   2.096   1_455  S
Co600     Cl1607   2.447       .  S
C602       C1588   1.468   1_455  S
Cl607     Co1565   2.457       .  S
Cl607     Co1600   2.447       .  S
C608        C702   1.466       .  S
N610       C1094   1.354       .  A
C611        C612   1.419       .  A
C611        C616   1.397       .  A
C611        F618   1.356       .  S
C612        C613   1.423       .  A
C613        C614   1.396       .  A
C613        F620   1.356       .  S
C614        C615   1.400       .  A
C614        F619   1.358       .  S
C615        C616   1.405       .  A
C616        F617   1.358       .  S
C621        C622   1.402       .  A
C621        C626   1.396       .  A
C621        F628   1.357       .  S
C622        C623   1.401       .  A
C623        C624   1.395       .  A
C623        F630   1.358       .  S
C624        C625   1.422       .  A
C624        F629   1.358       .  S
C625        C626   1.425       .  A
C626        F627   1.354       .  S
C631        C632   1.405       .  A
C631        C636   1.398       .  A
C631        F638   1.358       .  S
C632        C633   1.400       .  A
C633        C634   1.388       .  A
C633        F640   1.357       .  S
C634        C635   1.425       .  A
C634        F639   1.356       .  S
C635        C636   1.418       .  A
C636        F637   1.358       .  S
C641        C642   1.396       .  A
C641        C646   1.401       .  A
C641        F648   1.358       .  S
C642        C643   1.401       .  A
C643        C644   1.400       .  A
C643        F650   1.358       .  S
C644        C645   1.421       .  A
C644        F649   1.356       .  S
C645        C646   1.424       .  A
C646        F647   1.355       .  S
C651        C652   1.430       .  A
C651        C656   1.392       .  A
C651        F658   1.357       .  S
C652        C653   1.419       .  A
C653        C654   1.405       .  A
C653        F660   1.357       .  S
C654        C655   1.401       .  A
C654        F659   1.357       .  S
C655        C656   1.392       .  A
C656        F657   1.359       .  S
C661        C662   1.425       .  A
C661        C666   1.401       .  A
C661        F668   1.354       .  S
C662        C663   1.426       .  A
C663        C664   1.398       .  A
C663        F670   1.357       .  S
C664        C665   1.398       .  A
C664        F669   1.358       .  S
C665        C666   1.400       .  A
C666        F667   1.358       .  S
C671        C672   1.417       .  A
C671        C676   1.389       .  A
C671        F678   1.357       .  S
C672        C673   1.416       .  A
C673        C674   1.386       .  A
C673        F680   1.355       .  S
C674        C675   1.415       .  A
C674        F679   1.355       .  S
C675        C676   1.416       .  A
C676        F677   1.357       .  S
C681        C682   1.424       .  A
C681        C686   1.401       .  A
C681        F688   1.355       .  S
C682        C683   1.421       .  A
C683        C684   1.400       .  A
C683        F690   1.356       .  S
C684        C685   1.401       .  A
C684        F689   1.358       .  S
C685        C686   1.397       .  A
C686        F687   1.358       .  S
C691        C692   1.399       .  A
C691        C696   1.400       .  A
C691        F698   1.358       .  S
C692        C693   1.398       .  A
C693        C694   1.397       .  A
C693        F700   1.358       .  S
C694        C695   1.425       .  A
C694        F699   1.358       .  S
C695        C696   1.426       .  A
C696        F697   1.354       .  S
C701        C702   1.391       .  A
C701        C706   1.390       .  A
C701        F708   1.359       .  S
C702        C703   1.402       .  A
C703        C704   1.405       .  A
C703        F710   1.357       .  S
C704        C705   1.419       .  A
C704        F709   1.358       .  S
C705        C706   1.431       .  A
C706        F707   1.356       .  S
C711        C962   1.390       .  A
C711        C716   1.394   1_556  A
C711        F718   1.359   1_556  S
C712        C961   1.390       .  A
C712        C713   1.398       .  A
C713        C714   1.399       .  A
C713        F720   1.358       .  S
C714        C715   1.435       .  A
C714        F719   1.351       .  S
C715        C751   1.596       .  S
C715        C966   1.436       .  A
C716        C965   1.436   1_554  A
C716        F717   1.340       .  S
C721        C722   1.429       .  A
C721        C726   1.403       .  A
C721        F728   1.354       .  S
C722        C751   1.594       .  S
C722        C973   1.424       .  A
C723        C972   1.424       .  A
C723        C724   1.388       .  A
C723        F730   1.357       .  S
C724        C975   1.397   1_554  A
C724        F729   1.357       .  S
C725        C974   1.397       .  A
C725        C726   1.398       .  A
C726        F727   1.358       .  S
C731        C732   1.400       .  A
C731        C736   1.404       .  A
C731        F738   1.358       .  S
C732        C983   1.395       .  A
C733        C982   1.395   1_554  A
C733        C734   1.393       .  A
C733        F740   1.359       .  S
C734        C985   1.429   1_554  A
C734        F739   1.356       .  S
C735        C751   1.578       .  S
C735        C984   1.429       .  A
C735        C736   1.422       .  A
C736        F737   1.359       .  S
C741        C742   1.416       .  A
C741        C746   1.387       .  A
C741        F748   1.355       .  S
C742        C743   1.414       .  A
C743        C744   1.388       .  A
C743        F750   1.357       .  S
C744        C745   1.417       .  A
C744        F749   1.357       .  S
C745        C746   1.415       .  A
C746        F747   1.354       .  S
C751        C992   1.554       .  S
C752        C932   1.567       .  S
C752        C945   1.570       .  S
C752        C955   1.567       .  S
C752        C995   1.556       .  S
C753        C895   1.566       .  S
C753        C902   1.566       .  S
C753        C912   1.571       .  S
C753        C925   1.556       .  S
C754        C862   1.561       .  S
C754        C875   1.564       .  S
C754        C885   1.559       .  S
C754        C922   1.557       .  S
C755        N773   1.347       .  A
C755        C792   1.460       .  S
C755        C982   1.470       .  S
N756        N773   1.323       .  A
N756        N778   1.319       .  A
C757        N782   1.333       .  A
C757        C795   1.451       .  S
C757        H802   1.081       .  S
H758        C799   1.082       .  S
C759        N783   1.348       .  A
C759        H788   1.083       .  S
Co760      N1778   2.093   1_455  S
Co760       N768   2.066       .  S
Co760       N776   2.096       .  S
Co760     Cl1804   2.456   1_455  S
N761        C799   1.348       .  A
N761        N768   1.322       .  A
N761       Co762   2.110       .  S
Co762       N765   2.087       .  S
Co762       N782   2.060       .  S
Co762     Cl1804   2.446   1_455  S
C763       N1801   1.350       .  A
C763        C838   1.485       .  S
N764        N771   1.322       .  A
N764        N794   1.326       .  A
N764       Co797   2.089       .  S
N765       N1283   1.321   1_455  A
N765        N801   1.327       .  A
N766        C795   1.357       .  A
N766        N776   1.326       .  A
H767        C792   1.081       .  S
N768        N789   1.320       .  A
N769        N787   1.320       .  A
N769        N774   1.328       .  A
C770        N774   1.353       .  A
C770        C798   1.453       .  S
C770        C905   1.468       .  S
N771        C786   1.339       .  A
N771       Co793   2.092       .  S
C772        N800   1.346       .  A
C772       C1275   1.465       .  S
C772        H806   1.083       .  S
C775        N796   1.354   1_545  A
C775       C1272   1.465       .  S
C775        C844   1.486   1_545  S
N776        N782   1.319       .  A
N777        C803   1.334       .  A
N777        N779   1.319       .  A
N777       Co793   2.064       .  S
N778        C792   1.344       .  A
N778      Co1760   2.093       .  S
N779        N807   1.326       .  A
N779       Co797   2.091       .  S
H781        C798   1.081   1_655  S
N783       N1265   1.321   1_565  A
N783       Co797   2.112       .  S
N784        N796   1.329       .  A
N784       N1300   1.320   1_565  A
C785        N789   1.341       .  A
C785        C799   1.470       .  S
C785        C892   1.470       .  S
C786        C805   1.457       .  S
C786        H790   1.082       .  S
N787        C798   1.338       .  A
N787      Co1797   2.073   1_455  S
C791        N807   1.351       .  A
C791        C803   1.458       .  S
C791        C975   1.474       .  S
N794        C805   1.353       .  A
C795        C962   1.478       .  S
Co797      N1787   2.073       .  S
N800       N1284   1.320   1_455  A
N801       C1763   1.350   1_455  A
Cl804     Co1760   2.456       .  S
Cl804     Co1762   2.446       .  S
C805        C915   1.477       .  S
C808        N826   1.350       .  A
C808        C845   1.461       .  S
C808        C882   1.477       .  S
N809        N826   1.323       .  A
N809        N831   1.317       .  A
N809       Co846   2.079       .  S
C810        N835   1.338       .  A
C810        C848   1.462       .  S
C810        H855   1.080   1_565  S
H811        C852   1.083       .  S
C812        N836   1.334       .  A
C812        C816   1.452       .  S
C812        H841   1.082       .  S
Co813       N831   2.062       .  S
Co813       N821   2.098       .  S
Co813       N853   2.086       .  S
Co813      N1829   2.071       .  S
N814        C852   1.346       .  A
N814       N1321   1.321   1_455  A
N814       Co815   2.106       .  S
Co815       N818   2.090       .  S
Co815       N822   2.078       .  S
Co815     Cl1857   2.457       .  S
C816        N854   1.356       .  A
C816        C865   1.477       .  S
N817        N824   1.320       .  A
N817        N847   1.327       .  A
N817      Co1850   2.096       .  S
N818        N836   1.319       .  A
N818        N854   1.326       .  A
N819        C848   1.350       .  A
N819        N829   1.323       .  A
H820        C845   1.081       .  S
N821       N1314   1.321   1_565  A
N821        N842   1.328       .  A
N822        N840   1.323       .  A
N822        N827   1.321       .  A
C823        N827   1.343       .  A
C823        C851   1.469       .  S
C823        C935   1.472       .  S
N824        C839   1.338       .  A
C825        N853   1.338       .  A
C825        C828   1.456       .  S
C825        H859   1.084       .  S
C828        N849   1.353       .  A
C828        C942   1.475       .  S
N829        N835   1.317       .  A
N829      Co1813   2.071   1_455  S
N830        C856   1.345       .  A
N830       N1332   1.321   1_565  A
N830       Co846   2.098       .  S
N831        C845   1.334       .  A
N832       N1330   1.321   1_455  A
N832        N860   1.329       .  A
N832       Co850   2.100       .  S
H833        C856   1.083       .  S
H834        C851   1.082       .  S
N836       Co850   2.066       .  S
N837        N849   1.326       .  A
N837        N853   1.322       .  A
N837       Co846   2.089       .  S
C838       C1852   1.468       .  S
C839        C858   1.454       .  S
C839        H843   1.082       .  S
N840        C851   1.347       .  A
N840       Co850   2.109       .  S
C844       N1360   1.353   1_565  A
C844        C856   1.463       .  S
N847        C858   1.351       .  A
C848        C872   1.479       .  S
Co850      N1817   2.096   1_455  S
Co850     Cl1857   2.447       .  S
C852       C1838   1.468   1_455  S
Cl857     Co1815   2.457       .  S
Cl857     Co1850   2.447       .  S
C858        C952   1.466       .  S
N860       C1344   1.353       .  A
C861        C862   1.419       .  A
C861        C866   1.397       .  A
C861        F868   1.356       .  S
C862        C863   1.423       .  A
C863        C864   1.396       .  A
C863        F870   1.356       .  S
C864        C865   1.400       .  A
C864        F869   1.358       .  S
C865        C866   1.405       .  A
C866        F867   1.358       .  S
C871        C872   1.402       .  A
C871        C876   1.396       .  A
C871        F878   1.357       .  S
C872        C873   1.401       .  A
C873        C874   1.395       .  A
C873        F880   1.358       .  S
C874        C875   1.422       .  A
C874        F879   1.358       .  S
C875        C876   1.425       .  A
C876        F877   1.354       .  S
C881        C882   1.405       .  A
C881        C886   1.398       .  A
C881        F888   1.358       .  S
C882        C883   1.400       .  A
C883        C884   1.388       .  A
C883        F890   1.357       .  S
C884        C885   1.425       .  A
C884        F889   1.356       .  S
C885        C886   1.418       .  A
C886        F887   1.358       .  S
C891        C892   1.396       .  A
C891        C896   1.401       .  A
C891        F898   1.358       .  S
C892        C893   1.401       .  A
C893        C894   1.400       .  A
C893        F900   1.358       .  S
C894        C895   1.421       .  A
C894        F899   1.356       .  S
C895        C896   1.424       .  A
C896        F897   1.355       .  S
C901        C902   1.430       .  A
C901        C906   1.392       .  A
C901        F908   1.357       .  S
C902        C903   1.419       .  A
C903        C904   1.405       .  A
C903        F910   1.357       .  S
C904        C905   1.401       .  A
C904        F909   1.357       .  S
C905        C906   1.392       .  A
C906        F907   1.359       .  S
C911        C912   1.425       .  A
C911        C916   1.401       .  A
C911        F918   1.354       .  S
C912        C913   1.426       .  A
C913        C914   1.398       .  A
C913        F920   1.357       .  S
C914        C915   1.398       .  A
C914        F919   1.358       .  S
C915        C916   1.400       .  A
C916        F917   1.358       .  S
C921        C922   1.417       .  A
C921        C926   1.389       .  A
C921        F928   1.357       .  S
C922        C923   1.416       .  A
C923        C924   1.386       .  A
C923        F930   1.355       .  S
C924        C925   1.415       .  A
C924        F929   1.355       .  S
C925        C926   1.416       .  A
C926        F927   1.357       .  S
C931        C932   1.424       .  A
C931        C936   1.401       .  A
C931        F938   1.355       .  S
C932        C933   1.421       .  A
C933        C934   1.400       .  A
C933        F940   1.356       .  S
C934        C935   1.401       .  A
C934        F939   1.358       .  S
C935        C936   1.397       .  A
C936        F937   1.358       .  S
C941        C942   1.399       .  A
C941        C946   1.400       .  A
C941        F948   1.358       .  S
C942        C943   1.398       .  A
C943        C944   1.397       .  A
C943        F950   1.358       .  S
C944        C945   1.425       .  A
C944        F949   1.358       .  S
C945        C946   1.426       .  A
C946        F947   1.354       .  S
C951        C952   1.391       .  A
C951        C956   1.390       .  A
C951        F958   1.359       .  S
C952        C953   1.402       .  A
C953        C954   1.405       .  A
C953        F960   1.357       .  S
C954        C955   1.419       .  A
C954        F959   1.358       .  S
C955        C956   1.431       .  A
C956        F957   1.356       .  S
C961        C966   1.394       .  A
C961        F968   1.359       .  S
C962        C963   1.398       .  A
C963        C964   1.399       .  A
C963        F970   1.358       .  S
C964        C965   1.435       .  A
C964        F969   1.351       .  S
C966        F967   1.340       .  S
C971        C972   1.429   1_556  A
C971        C976   1.403       .  A
C971        F978   1.354       .  S
C973        C974   1.388       .  A
C973        F980   1.357       .  S
C974        F979   1.357       .  S
C975        C976   1.399       .  A
C976        F977   1.358       .  S
C981        C982   1.400       .  A
C981        C986   1.404       .  A
C981        F988   1.358       .  S
C983        C984   1.393       .  A
C983        F990   1.359       .  S
C984        F989   1.356       .  S
C985        C986   1.422       .  A
C986        F987   1.359       .  S
C991        C992   1.416       .  A
C991        C996   1.387       .  A
C991        F998   1.355       .  S
C992        C993   1.414       .  A
C993        C994   1.388       .  A
C993       F1000   1.357       .  S
C994        C995   1.417       .  A
C994        F999   1.357       .  S
C995        C996   1.415       .  A
C996        F997   1.354       .  S
C1001      C1465   1.596   1_554  S
C1001      C1472   1.594       .  S
C1001      C1485   1.578   1_554  S
C1001      C1242   1.554       .  S
C1002      C1182   1.567       .  S
C1002      C1195   1.570       .  S
C1002      C1205   1.567       .  S
C1002      C1245   1.556       .  S
C1003      C1145   1.566       .  S
C1003      C1152   1.566       .  S
C1003      C1162   1.571       .  S
C1003      C1175   1.556       .  S
C1004      C1112   1.561       .  S
C1004      C1125   1.564       .  S
C1004      C1135   1.559       .  S
C1004      C1172   1.557       .  S
C1005      N1023   1.347       .  A
C1005      C1042   1.460       .  S
C1005      C1232   1.470       .  S
N1006      N1023   1.323       .  A
N1006      N1028   1.319       .  A
N1006     Co1543   2.070   1_545  S
C1007      N1032   1.333       .  A
C1007      C1045   1.451       .  S
C1007      H1052   1.081       .  S
H1008      C1049   1.082       .  S
C1009      N1033   1.348       .  A
C1009      C1513   1.469       .  S
C1009      H1038   1.083       .  S
Co1010     N1018   2.066       .  S
Co1010     N1300   2.098       .  S
Co1010     N1026   2.096       .  S
N1011      C1049   1.347       .  A
N1011      N1018   1.322       .  A
N1011     Co1012   2.110       .  S
Co1012     N1015   2.087       .  S
Co1012     N1032   2.060       .  S
Co1012     N1519   2.103   1_545  S
C1013      C1509   1.469   1_545  S
C1013      C1088   1.485       .  S
N1014      N1021   1.322       .  A
N1014      N1044   1.326       .  A
N1014     Co1047   2.089       .  S
N1015      N1051   1.327       .  A
N1016      C1045   1.357       .  A
N1016      N1026   1.326       .  A
H1017      C1042   1.081       .  S
N1018      N1039   1.320       .  A
N1019      N1037   1.320       .  A
N1019      N1024   1.328       .  A
N1019     Co1512   2.103       .  S
C1020      N1024   1.353       .  A
C1020      C1048   1.453       .  S
C1020      C1155   1.469       .  S
N1021      C1036   1.339       .  A
N1021     Co1043   2.092       .  S
C1022      N1050   1.346       .  A
C1022      H1056   1.083       .  S
C1025      N1046   1.354   1_455  A
C1025      C1094   1.486       .  S
N1026      N1032   1.319       .  A
N1027      C1053   1.334       .  A
N1027      N1029   1.319       .  A
N1027     Co1043   2.064       .  S
N1028      C1042   1.344       .  A
N1029      N1057   1.326       .  A
N1029     Co1047   2.091       .  S
H1030      C1303   1.081   1_554  S
H1031      C1048   1.081       .  S
N1033     Co1047   2.112       .  S
N1034      N1046   1.329       .  A
N1034     Co1293   2.103   1_554  S
C1035      N1039   1.341       .  A
C1035      C1049   1.469       .  S
C1035      C1142   1.470       .  S
C1036      C1055   1.457       .  S
C1036      H1040   1.082       .  S
N1037      C1048   1.338       .  A
C1041      N1057   1.351       .  A
C1041      C1053   1.458       .  S
C1041      C1225   1.474       .  S
Co1043     N1506   2.070       .  S
Co1043     N1284   2.103       .  S
Co1043    Cl1554   2.445       .  S
N1044      C1055   1.353       .  A
C1045      C1212   1.478       .  S
Co1047    Cl1554   2.462       .  S
N1050     Co1260   2.098   1_554  S
C1053      H1280   1.081       .  S
Cl1054    Co1543   2.445   1_545  S
Cl1054    Co1547   2.462   1_545  S
C1055      C1165   1.477       .  S
C1058      N1076   1.350       .  A
C1058      C1095   1.461       .  S
C1058      C1132   1.477       .  S
N1059      N1076   1.323       .  A
N1059      N1081   1.317       .  A
N1059     Co1096   2.080       .  S
C1060      N1085   1.338       .  A
C1060      C1098   1.462       .  S
C1060      H1105   1.080       .  S
H1061      C1102   1.083       .  S
C1062      N1086   1.334       .  A
C1062      C1066   1.452       .  S
C1062      H1091   1.082       .  S
Co1063     N1081   2.062       .  S
Co1063     N1071   2.098       .  S
Co1063     N1103   2.086       .  S
Co1063    Cl1607   2.444   1_655  S
N1064      C1102   1.346       .  A
N1064     Co1065   2.105       .  S
Co1065     N1068   2.090       .  S
Co1065     N1585   2.078   1_545  S
Co1065     N1072   2.078       .  S
C1066      N1104   1.356       .  A
C1066      C1115   1.477       .  S
N1067      N1074   1.320       .  A
N1067      N1097   1.327       .  A
N1068      N1086   1.319       .  A
N1068      N1104   1.326       .  A
N1069      C1098   1.350       .  A
N1069      N1079   1.323       .  A
H1070      C1095   1.081       .  S
N1071      N1092   1.328       .  A
N1072      N1090   1.323       .  A
N1072      N1077   1.321       .  A
C1073      N1077   1.343       .  A
C1073      C1101   1.469       .  S
C1073      C1185   1.472       .  S
N1074      C1089   1.338       .  A
N1074     Co1596   2.077   1_545  S
C1075      N1103   1.338       .  A
C1075      C1078   1.456       .  S
C1075      H1109   1.084       .  S
C1078      N1099   1.353       .  A
C1078      C1192   1.475       .  S
N1079      N1085   1.317       .  A
N1080      C1106   1.345       .  A
N1080     Co1096   2.098       .  S
N1081      C1095   1.334       .  A
N1082      N1110   1.329       .  A
N1082     Co1100   2.100       .  S
H1083      C1106   1.083       .  S
H1084      C1101   1.082       .  S
N1085     Co1565   2.078       .  S
N1086     Co1100   2.066       .  S
N1087      N1099   1.326       .  A
N1087      N1103   1.322       .  A
N1087     Co1096   2.089       .  S
C1088      N1592   1.351   1_545  A
C1089      C1108   1.454       .  S
C1089      H1093   1.082       .  S
N1090      C1101   1.347       .  A
N1090     Co1100   2.109       .  S
N1092      C1588   1.351       .  A
C1094      C1106   1.464   1_455  S
Co1096     N1574   2.077       .  S
Co1096    Cl1607   2.458   1_655  S
N1097      C1108   1.351       .  A
C1098      C1122   1.479       .  S
Cl1107    Co1563   2.444   1_445  S
Cl1107    Co1596   2.458   1_445  S
C1108      C1202   1.466       .  S
C1111      C1112   1.419       .  A
C1111      C1116   1.397       .  A
C1111      F1118   1.356       .  S
C1112      C1113   1.423       .  A
C1113      C1114   1.396       .  A
C1113      F1120   1.356       .  S
C1114      C1115   1.400       .  A
C1114      F1119   1.358       .  S
C1115      C1116   1.405       .  A
C1116      F1117   1.358       .  S
C1121      C1122   1.402       .  A
C1121      C1126   1.396       .  A
C1121      F1128   1.357       .  S
C1122      C1123   1.401       .  A
C1123      C1124   1.395       .  A
C1123      F1130   1.358       .  S
C1124      C1125   1.422       .  A
C1124      F1129   1.358       .  S
C1125      C1126   1.425       .  A
C1126      F1127   1.354       .  S
C1131      C1132   1.405       .  A
C1131      C1136   1.398       .  A
C1131      F1138   1.358       .  S
C1132      C1133   1.400       .  A
C1133      C1134   1.388       .  A
C1133      F1140   1.357       .  S
C1134      C1135   1.425       .  A
C1134      F1139   1.356       .  S
C1135      C1136   1.418       .  A
C1136      F1137   1.358       .  S
C1141      C1142   1.396       .  A
C1141      C1146   1.401       .  A
C1141      F1148   1.358       .  S
C1142      C1143   1.401       .  A
C1143      C1144   1.400       .  A
C1143      F1150   1.358       .  S
C1144      C1145   1.421       .  A
C1144      F1149   1.356       .  S
C1145      C1146   1.424       .  A
C1146      F1147   1.355       .  S
C1151      C1152   1.430       .  A
C1151      C1156   1.392       .  A
C1151      F1158   1.357       .  S
C1152      C1153   1.419       .  A
C1153      C1154   1.405       .  A
C1153      F1160   1.357       .  S
C1154      C1155   1.401       .  A
C1154      F1159   1.357       .  S
C1155      C1156   1.392       .  A
C1156      F1157   1.359       .  S
C1161      C1162   1.425       .  A
C1161      C1166   1.401       .  A
C1161      F1168   1.354       .  S
C1162      C1163   1.426       .  A
C1163      C1164   1.398       .  A
C1163      F1170   1.357       .  S
C1164      C1165   1.398       .  A
C1164      F1169   1.358       .  S
C1165      C1166   1.400       .  A
C1166      F1167   1.358       .  S
C1171      C1172   1.417       .  A
C1171      C1176   1.389       .  A
C1171      F1178   1.357       .  S
C1172      C1173   1.416       .  A
C1173      C1174   1.386       .  A
C1173      F1180   1.355       .  S
C1174      C1175   1.415       .  A
C1174      F1179   1.355       .  S
C1175      C1176   1.416       .  A
C1176      F1177   1.357       .  S
C1181      C1182   1.424       .  A
C1181      C1186   1.401       .  A
C1181      F1188   1.355       .  S
C1182      C1183   1.421       .  A
C1183      C1184   1.400       .  A
C1183      F1190   1.356       .  S
C1184      C1185   1.401       .  A
C1184      F1189   1.358       .  S
C1185      C1186   1.397       .  A
C1186      F1187   1.358       .  S
C1191      C1192   1.399       .  A
C1191      C1196   1.400       .  A
C1191      F1198   1.358       .  S
C1192      C1193   1.398       .  A
C1193      C1194   1.397       .  A
C1193      F1200   1.358       .  S
C1194      C1195   1.425       .  A
C1194      F1199   1.358       .  S
C1195      C1196   1.426       .  A
C1196      F1197   1.354       .  S
C1201      C1202   1.391       .  A
C1201      C1206   1.390       .  A
C1201      F1208   1.359       .  S
C1202      C1203   1.402       .  A
C1203      C1204   1.405       .  A
C1203      F1210   1.357       .  S
C1204      C1205   1.419       .  A
C1204      F1209   1.358       .  S
C1205      C1206   1.431       .  A
C1206      F1207   1.356       .  S
C1211      C1462   1.390       .  A
C1211      C1216   1.394   1_556  A
C1211      F1218   1.359   1_556  S
C1212      C1461   1.390       .  A
C1212      C1213   1.398       .  A
C1213      C1214   1.399       .  A
C1213      F1220   1.358       .  S
C1214      C1215   1.435       .  A
C1214      F1219   1.351       .  S
C1215      C1251   1.596       .  S
C1215      C1466   1.436       .  A
C1216      C1465   1.436   1_554  A
C1216      F1217   1.340       .  S
C1221      C1222   1.429       .  A
C1221      C1226   1.403       .  A
C1221      F1228   1.354       .  S
C1222      C1251   1.594       .  S
C1222      C1473   1.424       .  A
C1223      C1472   1.424       .  A
C1223      C1224   1.388       .  A
C1223      F1230   1.357       .  S
C1224      C1475   1.397   1_554  A
C1224      F1229   1.357       .  S
C1225      C1474   1.397       .  A
C1225      C1226   1.398       .  A
C1226      F1227   1.358       .  S
C1231      C1232   1.400       .  A
C1231      C1236   1.404       .  A
C1231      F1238   1.358       .  S
C1232      C1483   1.395       .  A
C1233      C1482   1.395   1_554  A
C1233      C1234   1.393       .  A
C1233      F1240   1.359       .  S
C1234      C1485   1.429   1_554  A
C1234      F1239   1.356       .  S
C1235      C1251   1.578       .  S
C1235      C1484   1.429       .  A
C1235      C1236   1.422       .  A
C1236      F1237   1.359       .  S
C1241      C1242   1.416       .  A
C1241      C1246   1.387       .  A
C1241      F1248   1.355       .  S
C1242      C1243   1.414       .  A
C1243      C1244   1.388       .  A
C1243      F1250   1.357       .  S
C1244      C1245   1.417       .  A
C1244      F1249   1.357       .  S
C1245      C1246   1.415       .  A
C1246      F1247   1.354       .  S
C1251      C1492   1.554       .  S
C1252      C1432   1.567       .  S
C1252      C1445   1.570       .  S
C1252      C1455   1.567       .  S
C1252      C1495   1.556       .  S
C1253      C1395   1.566       .  S
C1253      C1402   1.566       .  S
C1253      C1412   1.571       .  S
C1253      C1425   1.556       .  S
C1254      C1362   1.561       .  S
C1254      C1375   1.564       .  S
C1254      C1385   1.559       .  S
C1254      C1422   1.557       .  S
C1255      N1273   1.347       .  A
C1255      C1292   1.460       .  S
C1255      C1482   1.470       .  S
N1256      N1273   1.323       .  A
N1256      N1278   1.319       .  A
N1256     Co1793   2.070   1_545  S
C1257      N1282   1.333       .  A
C1257      C1295   1.451       .  S
C1257      H1302   1.081       .  S
H1258      C1299   1.082       .  S
C1259      N1283   1.348       .  A
C1259      C1763   1.469       .  S
C1259      H1288   1.083       .  S
Co1260     N1268   2.066       .  S
Co1260     N1276   2.096       .  S
N1261      C1299   1.347       .  A
N1261      N1268   1.322       .  A
N1261     Co1262   2.110       .  S
Co1262     N1265   2.087       .  S
Co1262     N1282   2.060       .  S
Co1262     N1769   2.103   1_545  S
C1263      C1759   1.469   1_545  S
C1263      C1338   1.485       .  S
N1264      N1271   1.322       .  A
N1264      N1294   1.326       .  A
N1264     Co1297   2.089       .  S
N1265      N1301   1.327       .  A
N1266      C1295   1.357       .  A
N1266      N1276   1.326       .  A
H1267      C1292   1.081       .  S
N1268      N1289   1.320       .  A
N1269      N1287   1.320       .  A
N1269      N1274   1.328       .  A
N1269     Co1762   2.103       .  S
C1270      N1274   1.353       .  A
C1270      C1298   1.453       .  S
C1270      C1405   1.469       .  S
N1271      C1286   1.339       .  A
N1271     Co1293   2.091       .  S
C1272      N1300   1.346       .  A
C1272      H1306   1.083       .  S
C1275      N1296   1.354   1_455  A
C1275      C1344   1.486       .  S
N1276      N1282   1.319       .  A
N1277      C1303   1.334       .  A
N1277      N1279   1.319       .  A
N1277     Co1293   2.063       .  S
N1278      C1292   1.344       .  A
N1279      N1307   1.326       .  A
N1279     Co1297   2.091       .  S
H1281      C1298   1.081       .  S
N1283     Co1297   2.112       .  S
N1284      N1296   1.329       .  A
C1285      N1289   1.341       .  A
C1285      C1299   1.469       .  S
C1285      C1392   1.470       .  S
C1286      C1305   1.457       .  S
C1286      H1290   1.082       .  S
N1287      C1298   1.338       .  A
C1291      N1307   1.351       .  A
C1291      C1303   1.458       .  S
C1291      C1475   1.474       .  S
Co1293     N1756   2.071       .  S
Co1293    Cl1804   2.444       .  S
N1294      C1305   1.353       .  A
C1295      C1462   1.478       .  S
Co1297    Cl1804   2.463       .  S
Cl1304    Co1793   2.445   1_545  S
Cl1304    Co1797   2.461   1_545  S
C1305      C1415   1.477       .  S
C1308      N1326   1.350       .  A
C1308      C1345   1.461       .  S
C1308      C1382   1.477       .  S
N1309      N1326   1.323       .  A
N1309      N1331   1.317       .  A
N1309     Co1346   2.080       .  S
C1310      N1335   1.338       .  A
C1310      C1348   1.462       .  S
C1310      H1355   1.080       .  S
H1311      C1352   1.083       .  S
C1312      N1336   1.334       .  A
C1312      C1316   1.452       .  S
C1312      H1341   1.082       .  S
Co1313     N1331   2.062       .  S
Co1313     N1321   2.098       .  S
Co1313     N1353   2.086       .  S
Co1313    Cl1857   2.444   1_655  S
N1314      C1352   1.346       .  A
N1314     Co1315   2.106       .  S
Co1315     N1318   2.090       .  S
Co1315     N1835   2.078   1_545  S
Co1315     N1322   2.078       .  S
C1316      N1354   1.356       .  A
C1316      C1365   1.477       .  S
N1317      N1324   1.320       .  A
N1317      N1347   1.327       .  A
N1318      N1336   1.319       .  A
N1318      N1354   1.326       .  A
N1319      C1348   1.350       .  A
N1319      N1329   1.323       .  A
H1320      C1345   1.081       .  S
N1321      N1342   1.328       .  A
N1322      N1340   1.323       .  A
N1322      N1327   1.321       .  A
C1323      N1327   1.343       .  A
C1323      C1351   1.469       .  S
C1323      C1435   1.472       .  S
N1324      C1339   1.338       .  A
N1324     Co1846   2.077   1_545  S
C1325      N1353   1.338       .  A
C1325      C1328   1.456       .  S
C1325      H1359   1.084       .  S
C1328      N1349   1.353       .  A
C1328      C1442   1.475       .  S
N1329      N1335   1.317       .  A
N1330      C1356   1.345       .  A
N1330     Co1346   2.098       .  S
N1331      C1345   1.334       .  A
N1332      N1360   1.329       .  A
N1332     Co1350   2.100       .  S
H1333      C1356   1.083       .  S
H1334      C1351   1.082       .  S
N1335     Co1815   2.078       .  S
N1336     Co1350   2.066       .  S
N1337      N1349   1.326       .  A
N1337      N1353   1.322       .  A
N1337     Co1346   2.089       .  S
C1338      N1842   1.351   1_545  A
C1339      C1358   1.454       .  S
C1339      H1343   1.082       .  S
N1340      C1351   1.347       .  A
N1340     Co1350   2.109       .  S
N1342      C1838   1.351       .  A
C1344      C1356   1.464   1_455  S
Co1346     N1824   2.077       .  S
Co1346    Cl1857   2.458   1_655  S
N1347      C1358   1.351       .  A
C1348      C1372   1.479       .  S
Cl1357    Co1813   2.444   1_445  S
Cl1357    Co1846   2.458   1_445  S
C1358      C1452   1.466       .  S
C1361      C1362   1.419       .  A
C1361      C1366   1.397       .  A
C1361      F1368   1.356       .  S
C1362      C1363   1.423       .  A
C1363      C1364   1.396       .  A
C1363      F1370   1.356       .  S
C1364      C1365   1.400       .  A
C1364      F1369   1.358       .  S
C1365      C1366   1.405       .  A
C1366      F1367   1.358       .  S
C1371      C1372   1.402       .  A
C1371      C1376   1.396       .  A
C1371      F1378   1.357       .  S
C1372      C1373   1.401       .  A
C1373      C1374   1.395       .  A
C1373      F1380   1.358       .  S
C1374      C1375   1.422       .  A
C1374      F1379   1.358       .  S
C1375      C1376   1.425       .  A
C1376      F1377   1.354       .  S
C1381      C1382   1.405       .  A
C1381      C1386   1.398       .  A
C1381      F1388   1.358       .  S
C1382      C1383   1.400       .  A
C1383      C1384   1.388       .  A
C1383      F1390   1.357       .  S
C1384      C1385   1.425       .  A
C1384      F1389   1.356       .  S
C1385      C1386   1.418       .  A
C1386      F1387   1.358       .  S
C1391      C1392   1.396       .  A
C1391      C1396   1.401       .  A
C1391      F1398   1.358       .  S
C1392      C1393   1.401       .  A
C1393      C1394   1.400       .  A
C1393      F1400   1.358       .  S
C1394      C1395   1.421       .  A
C1394      F1399   1.356       .  S
C1395      C1396   1.424       .  A
C1396      F1397   1.355       .  S
C1401      C1402   1.430       .  A
C1401      C1406   1.392       .  A
C1401      F1408   1.357       .  S
C1402      C1403   1.419       .  A
C1403      C1404   1.405       .  A
C1403      F1410   1.357       .  S
C1404      C1405   1.401       .  A
C1404      F1409   1.357       .  S
C1405      C1406   1.392       .  A
C1406      F1407   1.359       .  S
C1411      C1412   1.425       .  A
C1411      C1416   1.401       .  A
C1411      F1418   1.354       .  S
C1412      C1413   1.426       .  A
C1413      C1414   1.398       .  A
C1413      F1420   1.357       .  S
C1414      C1415   1.398       .  A
C1414      F1419   1.358       .  S
C1415      C1416   1.400       .  A
C1416      F1417   1.358       .  S
C1421      C1422   1.417       .  A
C1421      C1426   1.389       .  A
C1421      F1428   1.357       .  S
C1422      C1423   1.416       .  A
C1423      C1424   1.386       .  A
C1423      F1430   1.355       .  S
C1424      C1425   1.415       .  A
C1424      F1429   1.355       .  S
C1425      C1426   1.416       .  A
C1426      F1427   1.357       .  S
C1431      C1432   1.424       .  A
C1431      C1436   1.401       .  A
C1431      F1438   1.355       .  S
C1432      C1433   1.421       .  A
C1433      C1434   1.400       .  A
C1433      F1440   1.356       .  S
C1434      C1435   1.401       .  A
C1434      F1439   1.358       .  S
C1435      C1436   1.397       .  A
C1436      F1437   1.358       .  S
C1441      C1442   1.399       .  A
C1441      C1446   1.400       .  A
C1441      F1448   1.358       .  S
C1442      C1443   1.398       .  A
C1443      C1444   1.397       .  A
C1443      F1450   1.358       .  S
C1444      C1445   1.425       .  A
C1444      F1449   1.358       .  S
C1445      C1446   1.426       .  A
C1446      F1447   1.354       .  S
C1451      C1452   1.391       .  A
C1451      C1456   1.390       .  A
C1451      F1458   1.359       .  S
C1452      C1453   1.402       .  A
C1453      C1454   1.405       .  A
C1453      F1460   1.357       .  S
C1454      C1455   1.419       .  A
C1454      F1459   1.358       .  S
C1455      C1456   1.431       .  A
C1456      F1457   1.356       .  S
C1461      C1466   1.394       .  A
C1461      F1468   1.359       .  S
C1462      C1463   1.398       .  A
C1463      C1464   1.399       .  A
C1463      F1470   1.358       .  S
C1464      C1465   1.435       .  A
C1464      F1469   1.351       .  S
C1466      F1467   1.340       .  S
C1471      C1472   1.429   1_556  A
C1471      C1476   1.403       .  A
C1471      F1478   1.354       .  S
C1473      C1474   1.388       .  A
C1473      F1480   1.357       .  S
C1474      F1479   1.357       .  S
C1475      C1476   1.398       .  A
C1476      F1477   1.358       .  S
C1481      C1482   1.400       .  A
C1481      C1486   1.404       .  A
C1481      F1488   1.358       .  S
C1483      C1484   1.393       .  A
C1483      F1490   1.359       .  S
C1484      F1489   1.356       .  S
C1485      C1486   1.422       .  A
C1486      F1487   1.359       .  S
C1491      C1492   1.416       .  A
C1491      C1496   1.387       .  A
C1491      F1498   1.355       .  S
C1492      C1493   1.414       .  A
C1493      C1494   1.388       .  A
C1493      F1500   1.357       .  S
C1494      C1495   1.417       .  A
C1494      F1499   1.357       .  S
C1495      C1496   1.415       .  A
C1496      F1497   1.354       .  S
C1501      C1965   1.596   1_554  S
C1501      C1972   1.594       .  S
C1501      C1985   1.578   1_554  S
C1501      C1742   1.554       .  S
C1502      C1682   1.567       .  S
C1502      C1695   1.570       .  S
C1502      C1705   1.567       .  S
C1502      C1745   1.556       .  S
C1503      C1645   1.566       .  S
C1503      C1652   1.566       .  S
C1503      C1662   1.571       .  S
C1503      C1675   1.556       .  S
C1504      C1612   1.561       .  S
C1504      C1625   1.564       .  S
C1504      C1635   1.559       .  S
C1504      C1672   1.557       .  S
C1505      N1523   1.347       .  A
C1505      C1542   1.460       .  S
C1505      C1732   1.470       .  S
N1506      N1523   1.323       .  A
N1506      N1528   1.319       .  A
C1507      N1532   1.333       .  A
C1507      C1545   1.451       .  S
C1507      H1552   1.081       .  S
H1508      C1549   1.082       .  S
C1509      N1533   1.348       .  A
C1509      H1538   1.083       .  S
Co1510     N1518   2.066       .  S
Co1510     N1800   2.098       .  S
Co1510     N1526   2.096       .  S
N1511      C1549   1.347       .  A
N1511      N1518   1.322       .  A
N1511     Co1512   2.110       .  S
Co1512     N1515   2.087       .  S
Co1512     N1532   2.060       .  S
C1513      C1588   1.485       .  S
N1514      N1521   1.322       .  A
N1514      N1544   1.326       .  A
N1514     Co1547   2.089       .  S
N1515      N1551   1.327       .  A
N1516      C1545   1.357       .  A
N1516      N1526   1.326       .  A
H1517      C1542   1.081       .  S
N1518      N1539   1.320       .  A
N1519      N1537   1.320       .  A
N1519      N1524   1.328       .  A
C1520      N1524   1.353       .  A
C1520      C1548   1.453       .  S
C1520      C1655   1.469       .  S
N1521      C1536   1.339       .  A
N1521     Co1543   2.092       .  S
C1522      N1550   1.346       .  A
C1522      H1556   1.083       .  S
C1525      N1546   1.354   1_445  A
C1525      C1594   1.486   1_545  S
N1526      N1532   1.319       .  A
N1527      C1553   1.334       .  A
N1527      N1529   1.319       .  A
N1527     Co1543   2.064       .  S
N1528      C1542   1.344       .  A
N1529      N1557   1.326       .  A
N1529     Co1547   2.091       .  S
H1530      C1803   1.081   1_554  S
H1531      C1548   1.081       .  S
N1533     Co1547   2.112       .  S
N1534      N1546   1.329       .  A
N1534     Co1793   2.103   1_554  S
C1535      N1539   1.341       .  A
C1535      C1549   1.469       .  S
C1535      C1642   1.470       .  S
C1536      C1555   1.457       .  S
C1536      H1540   1.082       .  S
N1537      C1548   1.338       .  A
C1541      N1557   1.351       .  A
C1541      C1553   1.458       .  S
C1541      C1725   1.474       .  S
Co1543     N1784   2.103       .  S
N1544      C1555   1.353       .  A
C1545      C1712   1.478       .  S
N1550     Co1760   2.098   1_554  S
C1553      H1780   1.081       .  S
C1555      C1665   1.477       .  S
C1558      N1576   1.350       .  A
C1558      C1595   1.461       .  S
C1558      C1632   1.477       .  S
N1559      N1576   1.323       .  A
N1559      N1581   1.317       .  A
N1559     Co1596   2.080       .  S
C1560      N1585   1.338       .  A
C1560      C1598   1.462       .  S
C1560      H1605   1.080   1_565  S
H1561      C1602   1.083       .  S
C1562      N1586   1.334       .  A
C1562      C1566   1.452       .  S
C1562      H1591   1.082       .  S
Co1563     N1581   2.062       .  S
Co1563     N1571   2.098       .  S
Co1563     N1603   2.086       .  S
N1564      C1602   1.346       .  A
N1564     Co1565   2.106       .  S
Co1565     N1568   2.090       .  S
Co1565     N1572   2.078       .  S
C1566      N1604   1.356       .  A
C1566      C1615   1.477       .  S
N1567      N1574   1.320       .  A
N1567      N1597   1.327       .  A
N1568      N1586   1.319       .  A
N1568      N1604   1.326       .  A
N1569      C1598   1.350       .  A
N1569      N1579   1.323       .  A
H1570      C1595   1.081       .  S
N1571      N1592   1.328       .  A
N1572      N1590   1.323       .  A
N1572      N1577   1.321       .  A
C1573      N1577   1.343       .  A
C1573      C1601   1.469       .  S
C1573      C1685   1.472       .  S
N1574      C1589   1.338       .  A
C1575      N1603   1.338       .  A
C1575      C1578   1.456       .  S
C1575      H1609   1.084       .  S
C1578      N1599   1.353       .  A
C1578      C1692   1.475       .  S
N1579      N1585   1.317       .  A
N1580      C1606   1.345       .  A
N1580     Co1596   2.098       .  S
N1581      C1595   1.334       .  A
N1582      N1610   1.329       .  A
N1582     Co1600   2.100       .  S
H1583      C1606   1.083       .  S
H1584      C1601   1.082       .  S
N1586     Co1600   2.066       .  S
N1587      N1599   1.326       .  A
N1587      N1603   1.322       .  A
N1587     Co1596   2.089       .  S
C1589      C1608   1.454       .  S
C1589      H1593   1.082       .  S
N1590      C1601   1.347       .  A
N1590     Co1600   2.109       .  S
C1594      C1606   1.463   1_455  S
N1597      C1608   1.351       .  A
C1598      C1622   1.479       .  S
C1608      C1702   1.466       .  S
C1611      C1612   1.419       .  A
C1611      C1616   1.397       .  A
C1611      F1618   1.356       .  S
C1612      C1613   1.423       .  A
C1613      C1614   1.396       .  A
C1613      F1620   1.356       .  S
C1614      C1615   1.400       .  A
C1614      F1619   1.358       .  S
C1615      C1616   1.405       .  A
C1616      F1617   1.358       .  S
C1621      C1622   1.402       .  A
C1621      C1626   1.396       .  A
C1621      F1628   1.357       .  S
C1622      C1623   1.401       .  A
C1623      C1624   1.395       .  A
C1623      F1630   1.358       .  S
C1624      C1625   1.422       .  A
C1624      F1629   1.358       .  S
C1625      C1626   1.425       .  A
C1626      F1627   1.354       .  S
C1631      C1632   1.405       .  A
C1631      C1636   1.398       .  A
C1631      F1638   1.358       .  S
C1632      C1633   1.400       .  A
C1633      C1634   1.388       .  A
C1633      F1640   1.357       .  S
C1634      C1635   1.425       .  A
C1634      F1639   1.356       .  S
C1635      C1636   1.418       .  A
C1636      F1637   1.358       .  S
C1641      C1642   1.396       .  A
C1641      C1646   1.401       .  A
C1641      F1648   1.358       .  S
C1642      C1643   1.401       .  A
C1643      C1644   1.400       .  A
C1643      F1650   1.358       .  S
C1644      C1645   1.421       .  A
C1644      F1649   1.356       .  S
C1645      C1646   1.424       .  A
C1646      F1647   1.355       .  S
C1651      C1652   1.430       .  A
C1651      C1656   1.392       .  A
C1651      F1658   1.357       .  S
C1652      C1653   1.419       .  A
C1653      C1654   1.405       .  A
C1653      F1660   1.357       .  S
C1654      C1655   1.401       .  A
C1654      F1659   1.357       .  S
C1655      C1656   1.392       .  A
C1656      F1657   1.359       .  S
C1661      C1662   1.425       .  A
C1661      C1666   1.401       .  A
C1661      F1668   1.354       .  S
C1662      C1663   1.426       .  A
C1663      C1664   1.398       .  A
C1663      F1670   1.357       .  S
C1664      C1665   1.398       .  A
C1664      F1669   1.358       .  S
C1665      C1666   1.400       .  A
C1666      F1667   1.358       .  S
C1671      C1672   1.417       .  A
C1671      C1676   1.389       .  A
C1671      F1678   1.357       .  S
C1672      C1673   1.416       .  A
C1673      C1674   1.386       .  A
C1673      F1680   1.355       .  S
C1674      C1675   1.415       .  A
C1674      F1679   1.355       .  S
C1675      C1676   1.416       .  A
C1676      F1677   1.357       .  S
C1681      C1682   1.424       .  A
C1681      C1686   1.401       .  A
C1681      F1688   1.355       .  S
C1682      C1683   1.421       .  A
C1683      C1684   1.400       .  A
C1683      F1690   1.356       .  S
C1684      C1685   1.401       .  A
C1684      F1689   1.358       .  S
C1685      C1686   1.397       .  A
C1686      F1687   1.358       .  S
C1691      C1692   1.399       .  A
C1691      C1696   1.400       .  A
C1691      F1698   1.358       .  S
C1692      C1693   1.398       .  A
C1693      C1694   1.397       .  A
C1693      F1700   1.358       .  S
C1694      C1695   1.425       .  A
C1694      F1699   1.358       .  S
C1695      C1696   1.426       .  A
C1696      F1697   1.354       .  S
C1701      C1702   1.391       .  A
C1701      C1706   1.390       .  A
C1701      F1708   1.359       .  S
C1702      C1703   1.402       .  A
C1703      C1704   1.405       .  A
C1703      F1710   1.357       .  S
C1704      C1705   1.419       .  A
C1704      F1709   1.358       .  S
C1705      C1706   1.431       .  A
C1706      F1707   1.356       .  S
C1711      C1962   1.390       .  A
C1711      C1716   1.394   1_556  A
C1711      F1718   1.359   1_556  S
C1712      C1961   1.390       .  A
C1712      C1713   1.398       .  A
C1713      C1714   1.399       .  A
C1713      F1720   1.358       .  S
C1714      C1715   1.435       .  A
C1714      F1719   1.351       .  S
C1715      C1751   1.596       .  S
C1715      C1966   1.436       .  A
C1716      C1965   1.436   1_554  A
C1716      F1717   1.340       .  S
C1721      C1722   1.429       .  A
C1721      C1726   1.403       .  A
C1721      F1728   1.354       .  S
C1722      C1751   1.594       .  S
C1722      C1973   1.424       .  A
C1723      C1972   1.424       .  A
C1723      C1724   1.388       .  A
C1723      F1730   1.357       .  S
C1724      C1975   1.397   1_554  A
C1724      F1729   1.357       .  S
C1725      C1974   1.397       .  A
C1725      C1726   1.398       .  A
C1726      F1727   1.358       .  S
C1731      C1732   1.400       .  A
C1731      C1736   1.404       .  A
C1731      F1738   1.358       .  S
C1732      C1983   1.395       .  A
C1733      C1982   1.395   1_554  A
C1733      C1734   1.393       .  A
C1733      F1740   1.359       .  S
C1734      C1985   1.429   1_554  A
C1734      F1739   1.356       .  S
C1735      C1751   1.578       .  S
C1735      C1984   1.429       .  A
C1735      C1736   1.422       .  A
C1736      F1737   1.359       .  S
C1741      C1742   1.416       .  A
C1741      C1746   1.387       .  A
C1741      F1748   1.355       .  S
C1742      C1743   1.414       .  A
C1743      C1744   1.388       .  A
C1743      F1750   1.357       .  S
C1744      C1745   1.417       .  A
C1744      F1749   1.357       .  S
C1745      C1746   1.415       .  A
C1746      F1747   1.354       .  S
C1751      C1992   1.554       .  S
C1752      C1932   1.567       .  S
C1752      C1945   1.570       .  S
C1752      C1955   1.567       .  S
C1752      C1995   1.556       .  S
C1753      C1895   1.566       .  S
C1753      C1902   1.566       .  S
C1753      C1912   1.571       .  S
C1753      C1925   1.556       .  S
C1754      C1862   1.561       .  S
C1754      C1875   1.564       .  S
C1754      C1885   1.559       .  S
C1754      C1922   1.557       .  S
C1755      N1773   1.347       .  A
C1755      C1792   1.460       .  S
C1755      C1982   1.470       .  S
N1756      N1773   1.323       .  A
N1756      N1778   1.319       .  A
C1757      N1782   1.333       .  A
C1757      C1795   1.451       .  S
C1757      H1802   1.081       .  S
H1758      C1799   1.082       .  S
C1759      N1783   1.348       .  A
C1759      H1788   1.083       .  S
Co1760     N1768   2.066       .  S
Co1760     N1776   2.096       .  S
N1761      C1799   1.348       .  A
N1761      N1768   1.322       .  A
N1761     Co1762   2.110       .  S
Co1762     N1765   2.087       .  S
Co1762     N1782   2.060       .  S
C1763      C1838   1.485       .  S
N1764      N1771   1.322       .  A
N1764      N1794   1.326       .  A
N1764     Co1797   2.089       .  S
N1765      N1801   1.327       .  A
N1766      C1795   1.357       .  A
N1766      N1776   1.326       .  A
H1767      C1792   1.081       .  S
N1768      N1789   1.320       .  A
N1769      N1787   1.320       .  A
N1769      N1774   1.328       .  A
C1770      N1774   1.353       .  A
C1770      C1798   1.453       .  S
C1770      C1905   1.468       .  S
N1771      C1786   1.339       .  A
N1771     Co1793   2.092       .  S
C1772      N1800   1.346       .  A
C1772      H1806   1.083       .  S
C1775      N1796   1.354   1_445  A
C1775      C1844   1.486   1_545  S
N1776      N1782   1.319       .  A
N1777      C1803   1.334       .  A
N1777      N1779   1.319       .  A
N1777     Co1793   2.064       .  S
N1778      C1792   1.344       .  A
N1779      N1807   1.326       .  A
N1779     Co1797   2.091       .  S
H1781      C1798   1.081       .  S
N1783     Co1797   2.112       .  S
N1784      N1796   1.329       .  A
C1785      N1789   1.341       .  A
C1785      C1799   1.470       .  S
C1785      C1892   1.470       .  S
C1786      C1805   1.457       .  S
C1786      H1790   1.082       .  S
N1787      C1798   1.338       .  A
C1791      N1807   1.351       .  A
C1791      C1803   1.458       .  S
C1791      C1975   1.474       .  S
N1794      C1805   1.353       .  A
C1795      C1962   1.478       .  S
C1805      C1915   1.477       .  S
C1808      N1826   1.350       .  A
C1808      C1845   1.461       .  S
C1808      C1882   1.477       .  S
N1809      N1826   1.323       .  A
N1809      N1831   1.317       .  A
N1809     Co1846   2.079       .  S
C1810      N1835   1.338       .  A
C1810      C1848   1.462       .  S
C1810      H1855   1.080   1_565  S
H1811      C1852   1.083       .  S
C1812      N1836   1.334       .  A
C1812      C1816   1.452       .  S
C1812      H1841   1.082       .  S
Co1813     N1831   2.062       .  S
Co1813     N1821   2.098       .  S
Co1813     N1853   2.086       .  S
N1814      C1852   1.346       .  A
N1814     Co1815   2.106       .  S
Co1815     N1818   2.090       .  S
Co1815     N1822   2.078       .  S
C1816      N1854   1.356       .  A
C1816      C1865   1.477       .  S
N1817      N1824   1.320       .  A
N1817      N1847   1.327       .  A
N1818      N1836   1.319       .  A
N1818      N1854   1.326       .  A
N1819      C1848   1.350       .  A
N1819      N1829   1.323       .  A
H1820      C1845   1.081       .  S
N1821      N1842   1.328       .  A
N1822      N1840   1.323       .  A
N1822      N1827   1.321       .  A
C1823      N1827   1.343       .  A
C1823      C1851   1.469       .  S
C1823      C1935   1.472       .  S
N1824      C1839   1.338       .  A
C1825      N1853   1.338       .  A
C1825      C1828   1.456       .  S
C1825      H1859   1.084       .  S
C1828      N1849   1.353       .  A
C1828      C1942   1.475       .  S
N1829      N1835   1.317       .  A
N1830      C1856   1.345       .  A
N1830     Co1846   2.098       .  S
N1831      C1845   1.334       .  A
N1832      N1860   1.329       .  A
N1832     Co1850   2.100       .  S
H1833      C1856   1.083       .  S
H1834      C1851   1.082       .  S
N1836     Co1850   2.066       .  S
N1837      N1849   1.326       .  A
N1837      N1853   1.322       .  A
N1837     Co1846   2.089       .  S
C1839      C1858   1.454       .  S
C1839      H1843   1.082       .  S
N1840      C1851   1.347       .  A
N1840     Co1850   2.109       .  S
C1844      C1856   1.463   1_455  S
N1847      C1858   1.351       .  A
C1848      C1872   1.479       .  S
C1858      C1952   1.466       .  S
C1861      C1862   1.419       .  A
C1861      C1866   1.397       .  A
C1861      F1868   1.356       .  S
C1862      C1863   1.423       .  A
C1863      C1864   1.396       .  A
C1863      F1870   1.356       .  S
C1864      C1865   1.400       .  A
C1864      F1869   1.358       .  S
C1865      C1866   1.405       .  A
C1866      F1867   1.358       .  S
C1871      C1872   1.402       .  A
C1871      C1876   1.396       .  A
C1871      F1878   1.357       .  S
C1872      C1873   1.401       .  A
C1873      C1874   1.395       .  A
C1873      F1880   1.358       .  S
C1874      C1875   1.422       .  A
C1874      F1879   1.358       .  S
C1875      C1876   1.425       .  A
C1876      F1877   1.354       .  S
C1881      C1882   1.405       .  A
C1881      C1886   1.398       .  A
C1881      F1888   1.358       .  S
C1882      C1883   1.400       .  A
C1883      C1884   1.388       .  A
C1883      F1890   1.357       .  S
C1884      C1885   1.425       .  A
C1884      F1889   1.356       .  S
C1885      C1886   1.418       .  A
C1886      F1887   1.358       .  S
C1891      C1892   1.396       .  A
C1891      C1896   1.401       .  A
C1891      F1898   1.358       .  S
C1892      C1893   1.401       .  A
C1893      C1894   1.400       .  A
C1893      F1900   1.358       .  S
C1894      C1895   1.421       .  A
C1894      F1899   1.356       .  S
C1895      C1896   1.424       .  A
C1896      F1897   1.355       .  S
C1901      C1902   1.430       .  A
C1901      C1906   1.392       .  A
C1901      F1908   1.357       .  S
C1902      C1903   1.419       .  A
C1903      C1904   1.405       .  A
C1903      F1910   1.357       .  S
C1904      C1905   1.401       .  A
C1904      F1909   1.357       .  S
C1905      C1906   1.392       .  A
C1906      F1907   1.359       .  S
C1911      C1912   1.425       .  A
C1911      C1916   1.401       .  A
C1911      F1918   1.354       .  S
C1912      C1913   1.426       .  A
C1913      C1914   1.398       .  A
C1913      F1920   1.357       .  S
C1914      C1915   1.398       .  A
C1914      F1919   1.358       .  S
C1915      C1916   1.400       .  A
C1916      F1917   1.358       .  S
C1921      C1922   1.417       .  A
C1921      C1926   1.389       .  A
C1921      F1928   1.357       .  S
C1922      C1923   1.416       .  A
C1923      C1924   1.386       .  A
C1923      F1930   1.355       .  S
C1924      C1925   1.415       .  A
C1924      F1929   1.355       .  S
C1925      C1926   1.416       .  A
C1926      F1927   1.357       .  S
C1931      C1932   1.424       .  A
C1931      C1936   1.401       .  A
C1931      F1938   1.355       .  S
C1932      C1933   1.421       .  A
C1933      C1934   1.400       .  A
C1933      F1940   1.356       .  S
C1934      C1935   1.401       .  A
C1934      F1939   1.358       .  S
C1935      C1936   1.397       .  A
C1936      F1937   1.358       .  S
C1941      C1942   1.399       .  A
C1941      C1946   1.400       .  A
C1941      F1948   1.358       .  S
C1942      C1943   1.398       .  A
C1943      C1944   1.397       .  A
C1943      F1950   1.358       .  S
C1944      C1945   1.425       .  A
C1944      F1949   1.358       .  S
C1945      C1946   1.426       .  A
C1946      F1947   1.354       .  S
C1951      C1952   1.391       .  A
C1951      C1956   1.390       .  A
C1951      F1958   1.359       .  S
C1952      C1953   1.402       .  A
C1953      C1954   1.405       .  A
C1953      F1960   1.357       .  S
C1954      C1955   1.419       .  A
C1954      F1959   1.358       .  S
C1955      C1956   1.431       .  A
C1956      F1957   1.356       .  S
C1961      C1966   1.394       .  A
C1961      F1968   1.359       .  S
C1962      C1963   1.398       .  A
C1963      C1964   1.399       .  A
C1963      F1970   1.358       .  S
C1964      C1965   1.435       .  A
C1964      F1969   1.351       .  S
C1966      F1967   1.340       .  S
C1971      C1972   1.429   1_556  A
C1971      C1976   1.403       .  A
C1971      F1978   1.354       .  S
C1973      C1974   1.388       .  A
C1973      F1980   1.357       .  S
C1974      F1979   1.357       .  S
C1975      C1976   1.399       .  A
C1976      F1977   1.358       .  S
C1981      C1982   1.400       .  A
C1981      C1986   1.404       .  A
C1981      F1988   1.358       .  S
C1983      C1984   1.393       .  A
C1983      F1990   1.359       .  S
C1984      F1989   1.356       .  S
C1985      C1986   1.422       .  A
C1986      F1987   1.359       .  S
C1991      C1992   1.416       .  A
C1991      C1996   1.387       .  A
C1991      F1998   1.355       .  S
C1992      C1993   1.414       .  A
C1993      C1994   1.388       .  A
C1993      F2000   1.357       .  S
C1994      C1995   1.417       .  A
C1994      F1999   1.357       .  S
C1995      C1996   1.415       .  A
C1996      F1997   1.354       .  S
