geometry optimzed in LAMMPS
_audit_creation_date              2020-11-30 
_audit_creation_method            'lammps2cif' 
_symmetry_space_group_name_H-M    'P1' 
_symmetry_Int_Tables_number       1 
_symmetry_cell_setting            triclinic 
loop_ 
_symmetry_equiv_pos_as_xyz 
  x,y,z 
_cell_length_a                    44.37319013 
_cell_length_b                    34.45233735166361 
_cell_length_c                    31.481733311541646 
_cell_angle_alpha                 90.15561633560449 
_cell_angle_beta                  89.58445345788485 
_cell_angle_gamma                 90.09445074146714 
loop_ 
_atom_site_label 
_atom_site_type_symbol 
_atom_site_fract_x 
_atom_site_fract_y 
_atom_site_fract_z 
_atom_site_charge 
C1          C  0.99931201  0.98440938  0.05034486     0.02800
C2          C  0.02687860  0.99475397  0.02809032     0.02800
C3          C  0.02540663  0.01949575  0.99187067     0.02800
C4          C  0.49728183  0.02964437  0.97366700     0.02800
C5          C  0.47011389  0.01608342  0.99292514     0.02800
C6          C  0.47090988  0.99108266  0.02925590     0.02800
O7          O  0.47125330  0.28994829  0.68602999    -0.84900
O8          O  0.44229811  0.28449507  0.60986715    -0.81900
C9          C  0.45389626  0.30847110  0.58417585     0.98600
O10         O  0.47987293  0.30269105  0.56880281    -0.81900
O11         O  0.03984146  0.28310590  0.57289387    -0.84600
C12         C  0.05103069  0.30168775  0.60392323     1.03100
O13         O  0.04453516  0.29232380  0.64171145    -0.77300
O14         O  0.01188964  0.26245428  0.70973756    -0.77500
C15         C  0.99142384  0.28743039  0.71375511     1.03100
O16         O  0.47175542  0.20664633  0.69344915    -0.84800
O17         O  0.44673508  0.20162746  0.61376607    -0.81900
C18         C  0.44626275  0.20143178  0.57371825     0.98600
O19         O  0.46374108  0.22304336  0.55232783    -0.81900
O20         O  0.02373215  0.20163643  0.56217056    -0.84500
C21         C  0.04871976  0.19634158  0.58021283     1.03100
O22         O  0.05542977  0.21572457  0.61273631    -0.77400
O23         O  0.01659375  0.18691980  0.67472694    -0.77500
C24         C  0.99293122  0.18220410  0.69675837     1.03100
Cr25       Cr  0.46095745  0.24558566  0.64870230     1.93700
Cr26       Cr  0.00145028  0.25193214  0.56857743     1.93200
Cr27       Cr  0.02938400  0.23983161  0.65684269     1.39100
O28         O  0.99710436  0.24572245  0.62441380    -1.22600
C29         C  0.99972702  0.46410435  0.97087154     0.02800
C30         C  0.47194128  0.47903665  0.98700485     0.02800
C31         C  0.47218101  0.51229190  0.01371756     0.02800
C32         C  0.00016778  0.52753851  0.02830944     0.02800
C33         C  0.02805545  0.51269365  0.01232585     0.02800
C34         C  0.02784923  0.48000904  0.98434880     0.02800
O35         O  0.47809247  0.70238914  0.31495912    -0.84900
O36         O  0.44490888  0.72094731  0.38607803    -0.81900
C37         C  0.45203359  0.69666325  0.41441451     0.98600
O38         O  0.47741866  0.69890888  0.43234748    -0.81900
O39         O  0.03912056  0.71036013  0.43697667    -0.84600
C40         C  0.05042878  0.68706165  0.40985328     1.03100
O41         O  0.04581056  0.69187621  0.37080639    -0.77300
O42         O  0.02353329  0.71915525  0.29541808    -0.77500
C43         C  0.00020731  0.69886198  0.29006082     1.03100
O44         O  0.48927948  0.78324983  0.29844342    -0.84800
O45         O  0.45921378  0.80097270  0.37305388    -0.81900
C46         C  0.45382266  0.80377137  0.41227302     0.98600
O47         O  0.46693700  0.78104213  0.43776325    -0.81900
O48         O  0.02890222  0.79446430  0.43449015    -0.84500
C49         C  0.05531422  0.79523962  0.41906106     1.03100
O50         O  0.06339233  0.76843453  0.39417754    -0.77400
O51         O  0.03429414  0.79637773  0.32345379    -0.77500
C52         C  0.01346886  0.80290273  0.29751779     1.03100
Cr53       Cr  0.47049692  0.75161305  0.34550237     1.93700
Cr54       Cr  0.00323726  0.74640860  0.43134224     1.93200
Cr55       Cr  0.03903462  0.74419077  0.34815552     1.39100
O56         O  0.00404621  0.74741063  0.37507302    -1.22600
C57         C  0.25317040  0.97789519  0.45688684     0.02800
C58         C  0.22431193  0.99043871  0.47268689     0.02800
C59         C  0.22358414  0.01899456  0.50504846     0.02800
C60         C  0.25087969  0.03149853  0.52397603     0.02800
C61         C  0.27874231  0.01343559  0.51319211     0.02800
C62         C  0.27815207  0.98011622  0.48567968     0.02800
O63         O  0.23127191  0.77793654  0.20307642    -0.84900
O64         O  0.20286969  0.79740533  0.13050572    -0.81900
C65         C  0.19766239  0.80381093  0.09194819     0.98600
O66         O  0.21136904  0.78420426  0.06363623    -0.81900
O67         O  0.27225445  0.80243049  0.06883430    -0.84600
C68         C  0.29814902  0.80550063  0.08486990     1.03100
O69         O  0.30771971  0.77857483  0.10796800    -0.77300
O70         O  0.27435378  0.79958698  0.17855524    -0.77500
C71         C  0.25258455  0.80224970  0.20428834     1.03100
O72         O  0.22666018  0.69722001  0.18148385    -0.84800
O73         O  0.19309320  0.71716551  0.11075764    -0.81900
C74         C  0.19995517  0.69827842  0.07758806     0.98600
O75         O  0.22559692  0.70311059  0.06046093    -0.81900
O76         O  0.28753649  0.71937620  0.06054836    -0.84500
C77         C  0.30065481  0.69664818  0.08646011     1.03100
O78         O  0.29627282  0.69953498  0.12591282    -0.77400
O79         O  0.26985934  0.71981873  0.20187130    -0.77500
C80         C  0.24859962  0.69591670  0.20679732     1.03100
Cr81       Cr  0.21602193  0.74729466  0.15382705     1.93700
Cr82       Cr  0.24947497  0.75200231  0.06760239     1.93200
Cr83       Cr  0.28432147  0.74931329  0.15140251     1.39100
O84         O  0.24975784  0.74876539  0.12397599    -1.22600
C85         C  0.25256329  0.47073077  0.53872648     0.02800
C86         C  0.27948945  0.48570959  0.51978107     0.02800
C87         C  0.27748137  0.51604559  0.48926441     0.02800
C88         C  0.24862988  0.52776248  0.47394647     0.02800
C89         C  0.22174828  0.51132442  0.49157810     0.02800
C90         C  0.22369406  0.48235115  0.52373919     0.02800
O91         O  0.26926352  0.28358814  0.79910271    -0.84900
O92         O  0.30014259  0.29107041  0.87318099    -0.81900
C93         C  0.30317793  0.29302646  0.91286729     0.98600
O94         O  0.28752498  0.27196640  0.93756614    -0.81900
O95         O  0.22724258  0.29277104  0.93516913    -0.84600
C96         C  0.20111402  0.29740250  0.92046435     1.03100
O97         O  0.19183908  0.27562575  0.89133200    -0.77300
O98         O  0.22722350  0.30542781  0.82663867    -0.77500
C99         C  0.24962085  0.31006972  0.80226025     1.03100
O100        O  0.27024894  0.20069651  0.80874279    -0.84800
O101        O  0.30534154  0.20904913  0.87997274    -0.81900
C102        C  0.29589881  0.18594128  0.90813214     0.98600
O103        O  0.27082363  0.19162580  0.92634422    -0.81900
O104        O  0.21065702  0.21056154  0.92881369    -0.84500
C105        C  0.19755923  0.19188188  0.89928557     1.03100
O106        O  0.20221936  0.20010994  0.86075302    -0.77400
O107        O  0.22924405  0.23002670  0.78896156    -0.77500
C108        C  0.24887821  0.20425762  0.78294177     1.03100
Cr109      Cr  0.28362714  0.24602676  0.84254888     1.93700
Cr110      Cr  0.24906901  0.24216601  0.92787080     1.93200
Cr111      Cr  0.21537164  0.25240474  0.84411082     1.39100
O112        O  0.24959522  0.24668449  0.87188819    -1.22600
C113        C  0.26079273  0.45337961  0.65761163    -0.05000
C114        C  0.25609471  0.41323473  0.66066987     0.09200
C115        C  0.25170081  0.39090362  0.62374724    -0.02300
C116        C  0.25012667  0.40901972  0.58375681    -0.00600
C117        C  0.25485438  0.44960295  0.58020280    -0.04200
C118        C  0.26091464  0.47138006  0.61753955     0.02800
C119        C  0.25569992  0.39391971  0.70283272     0.09600
C120        C  0.24883001  0.34899470  0.62716469     0.35500
C121        C  0.26508447  0.51301131  0.61572954     0.39000
C122        C  0.22867814  0.39147985  0.72642935    -0.04600
C123        C  0.22655119  0.36583327  0.76114830     0.02600
C124        C  0.25226462  0.34438097  0.77376121    -0.04200
C125        C  0.28051498  0.35263861  0.75429114    -0.00400
C126        C  0.28176924  0.37532040  0.71741501    -0.03000
C127        C  0.20278016  0.41419932  0.71378264     0.36300
C128        C  0.30843988  0.33753467  0.77151834     0.39900
C129        C  0.19755042  0.36048442  0.78193745     0.39000
C130        C  0.30933599  0.37683610  0.69254442     0.35900
C131        C  0.26475447  0.47624180  0.69598508     0.36600
C132        C  0.24301854  0.38510642  0.54741053     0.39900
N133        N  0.17432547  0.35627859  0.79828635    -0.38200
N134        N  0.18222461  0.43264797  0.70397592    -0.39800
N135        N  0.33074244  0.32569146  0.78521200    -0.37500
N136        N  0.33116916  0.37682697  0.67230311    -0.39900
N137        N  0.24678172  0.31561184  0.63006701    -0.39700
N138        N  0.23702596  0.36364948  0.52041579    -0.37300
N139        N  0.26787532  0.54636038  0.61635883    -0.38400
N140        N  0.26762377  0.49445361  0.72663623    -0.40000
C141        C  0.27084039  0.64954635  0.31326716    -0.05000
C142        C  0.24901814  0.62013655  0.31782827     0.09200
C143        C  0.22759381  0.61437231  0.28547998    -0.02300
C144        C  0.22762339  0.63827313  0.24897236    -0.00600
C145        C  0.24926723  0.66853281  0.24425758    -0.04200
C146        C  0.27119870  0.67344080  0.27698623     0.02800
C147        C  0.24804828  0.59634316  0.35774433     0.09600
C148        C  0.20496838  0.58417704  0.29025295     0.35500
C149        C  0.29396953  0.70379368  0.27508570     0.39000
C150        C  0.23925327  0.61366100  0.39650406    -0.04600
C151        C  0.23874015  0.59185168  0.43440813     0.02600
C152        C  0.24734608  0.55213884  0.43415162    -0.04200
C153        C  0.25574531  0.53489985  0.39483445    -0.00400
C154        C  0.25647469  0.55694612  0.35711625    -0.03000
C155        C  0.23063883  0.65439745  0.39735039     0.36300
C156        C  0.26223798  0.49373831  0.39244270     0.39900
C157        C  0.22927371  0.61167001  0.47269187     0.39000
C158        C  0.26625268  0.53914429  0.31754480     0.35900
C159        C  0.29239469  0.65632724  0.34708844     0.36600
C160        C  0.20506056  0.63131154  0.21668464     0.39900
N161        N  0.22132159  0.63065609  0.50098758    -0.38200
N162        N  0.22375535  0.68678245  0.39806563    -0.39800
N163        N  0.26666702  0.46076226  0.38950148    -0.37500
N164        N  0.27394453  0.52495207  0.28592855    -0.39900
N165        N  0.18699742  0.56003157  0.29409621    -0.39700
N166        N  0.18691873  0.62566332  0.19114468    -0.37300
N167        N  0.31215195  0.72791683  0.27405511    -0.38400
N168        N  0.30903747  0.66241098  0.37445990    -0.40000
C169        C  0.24496461  0.85056176  0.31230644    -0.05000
C170        C  0.25342302  0.88902877  0.30293224     0.09200
C171        C  0.26059448  0.89953253  0.26074931    -0.02300
C172        C  0.25995763  0.87136592  0.22817656    -0.00600
C173        C  0.25255327  0.83242725  0.23787166    -0.04200
C174        C  0.24464955  0.82230214  0.28003759     0.02800
C175        C  0.25539129  0.91821961  0.33776256     0.09600
C176        C  0.26834657  0.93945720  0.25096027     0.35500
C177        C  0.23656482  0.78261913  0.29080506     0.39000
C178        C  0.28319286  0.92576993  0.35755229    -0.04600
C179        C  0.28430416  0.95258295  0.39143920     0.02600
C180        C  0.25688122  0.96528878  0.41032853    -0.04200
C181        C  0.23313605  0.96914146  0.38122277    -0.00400
C182        C  0.23079073  0.94254475  0.34738521    -0.03000
C183        C  0.31036934  0.90684703  0.34241285     0.36300
C184        C  0.22303806  0.00806003  0.37263182     0.39900
C185        C  0.31250753  0.97175462  0.40078101     0.39000
C186        C  0.20512670  0.94415671  0.31925702     0.35900
C187        C  0.23624003  0.83963964  0.35507187     0.36600
C188        C  0.26549378  0.88290565  0.18451258     0.39900
N189        N  0.33489813  0.98766713  0.40788238    -0.38200
N190        N  0.33180110  0.89134031  0.32995294    -0.39800
N191        N  0.21650267  0.03915824  0.36251548    -0.37500
N192        N  0.18476806  0.94587556  0.29657650    -0.39900
N193        N  0.27443531  0.97136901  0.24330701    -0.39700
N194        N  0.26963862  0.89225134  0.14966922    -0.37300
N195        N  0.22980675  0.75121973  0.29977623    -0.38400
N196        N  0.22867333  0.82926670  0.38838519    -0.40000
C197        C  0.27262593  0.15092582  0.68272898    -0.05000
C198        C  0.24499931  0.13480286  0.66948063     0.09200
C199        C  0.21837155  0.14253770  0.69253574    -0.02300
C200        C  0.21964596  0.16453756  0.73022309    -0.00600
C201        C  0.24748651  0.18016510  0.74404704    -0.04200
C202        C  0.27371087  0.17456308  0.71911206     0.02800
C203        C  0.24426746  0.10887600  0.63163862     0.09600
C204        C  0.18968415  0.12806893  0.67713025     0.35500
C205        C  0.30137931  0.19509647  0.72912830     0.39000
C206        C  0.24170586  0.06850489  0.63715274    -0.04600
C207        C  0.24340084  0.04363490  0.60176406     0.02600
C208        C  0.24917203  0.05886943  0.56078222    -0.04200
C209        C  0.25233651  0.09946315  0.55560841    -0.00400
C210        C  0.24855958  0.12439379  0.59074567    -0.03000
C211        C  0.23878965  0.05246585  0.67959711     0.36300
C212        C  0.26142449  0.11601266  0.51535421     0.39900
C213        C  0.24258458  0.00203399  0.60861072     0.39000
C214        C  0.24933995  0.16619575  0.58520399     0.35900
C215        C  0.30003014  0.14319904  0.65887937     0.36600
C216        C  0.19225763  0.17053114  0.75476516     0.39900
N217        N  0.24291926  0.96911650  0.61568365    -0.38200
N218        N  0.23664638  0.03971477  0.71345681    -0.39800
N219        N  0.26938775  0.13094451  0.48435811    -0.37500
N220        N  0.24972507  0.19956755  0.58109140    -0.39900
N221        N  0.16684776  0.11664816  0.66464283    -0.39700
N222        N  0.17019178  0.17513267  0.77390041    -0.37300
N223        N  0.32335054  0.21181144  0.73670357    -0.38400
N224        N  0.32197780  0.13722999  0.63998567    -0.40000
C225        C  0.08580538  0.60014046  0.46608672    -0.05000
C226        C  0.11437786  0.59864135  0.44594980     0.09200
C227        C  0.12122170  0.62551385  0.41347674    -0.02300
C228        C  0.10058395  0.65476802  0.40276579    -0.00600
C229        C  0.07203809  0.65646175  0.42289465    -0.04200
C230        C  0.06459903  0.62879496  0.45435974     0.02800
C231        C  0.13840237  0.57111385  0.46070381     0.09600
C232        C  0.14946969  0.62293743  0.39039672     0.35500
C233        C  0.03493233  0.62913502  0.47388120     0.39000
C234        C  0.14908247  0.54135383  0.43370382    -0.04600
C235        C  0.17603003  0.52139848  0.44326209     0.02600
C236        C  0.19153177  0.52912619  0.48165214    -0.04200
C237        C  0.17903201  0.55658522  0.51038388    -0.00400
C238        C  0.15320103  0.57812470  0.49944165    -0.03000
C239        C  0.13288921  0.53248164  0.39494249     0.36300
C240        C  0.19470840  0.56658235  0.54912037     0.39900
C241        C  0.18794164  0.49471212  0.41190820     0.39000
C242        C  0.14315436  0.60966184  0.52672537     0.35900
C243        C  0.07824402  0.57202435  0.49866787     0.36600
C244        C  0.10946480  0.68431269  0.37224016     0.39900
N245        N  0.19596839  0.47429017  0.38489172    -0.38200
N246        N  0.12007635  0.52551469  0.36394649    -0.39800
N247        N  0.20711495  0.57658701  0.57942930    -0.37500
N248        N  0.13522136  0.63494755  0.54831485    -0.39900
N249        N  0.17146518  0.62043920  0.37074801    -0.39700
N250        N  0.11662655  0.70794068  0.34810853    -0.37300
N251        N  0.01122227  0.62910283  0.48941199    -0.38400
N252        N  0.07233154  0.54966113  0.52481236    -0.40000
C253        C  0.33169882  0.60261454  0.48342429    -0.05000
C254        C  0.35640231  0.58741362  0.46056622     0.09200
C255        C  0.35561332  0.54831258  0.44717515    -0.02300
C256        C  0.32946018  0.52548789  0.45368949    -0.00600
C257        C  0.30494605  0.54016282  0.47810872    -0.04200
C258        C  0.30713730  0.57854363  0.49434208     0.02800
C259        C  0.38260729  0.61312786  0.44892608     0.09600
C260        C  0.38200694  0.53149014  0.42682910     0.35500
C261        C  0.28589042  0.59254546  0.52589258     0.39000
C262        C  0.40223452  0.62774388  0.48035738    -0.04600
C263        C  0.42528983  0.65448606  0.46941337     0.02600
C264        C  0.42957284  0.66593189  0.42653973    -0.04200
C265        C  0.41104637  0.64895399  0.39493073    -0.00400
C266        C  0.38737238  0.62357655  0.40615668    -0.03000
C267        C  0.39858598  0.61523652  0.52406870     0.36300
C268        C  0.41671996  0.65608578  0.35026647     0.39900
C269        C  0.44377335  0.67099992  0.50269624     0.39000
C270        C  0.36772640  0.60821325  0.37340716     0.35900
C271        C  0.33150484  0.64322466  0.49588250     0.36600
C272        C  0.32856000  0.48721620  0.43479068     0.39900
N273        N  0.45845942  0.68399118  0.52945725    -0.38200
N274        N  0.39557886  0.60521321  0.55890262    -0.39800
N275        N  0.42065423  0.66067229  0.31429350    -0.37500
N276        N  0.35222397  0.59569025  0.34730899    -0.39900
N277        N  0.40312992  0.51814562  0.41075629    -0.39700
N278        N  0.32955481  0.45706827  0.41856710    -0.37300
N279        N  0.27020730  0.60473218  0.55219343    -0.38400
N280        N  0.33125695  0.67560318  0.50575933    -0.40000
C281        C  0.35650126  0.93773224  0.49073006    -0.05000
C282        C  0.35410020  0.90385950  0.46587013     0.09200
C283        C  0.32513752  0.88864490  0.45797122    -0.02300
C284        C  0.29922240  0.91046013  0.46919832    -0.00600
C285        C  0.30247397  0.94820103  0.48761612    -0.04200
C286        C  0.33026696  0.95463453  0.50794681     0.02800
C287        C  0.38160832  0.88095309  0.45399372     0.09600
C288        C  0.32204450  0.85092169  0.43778709     0.35500
C289        C  0.32939840  0.95306981  0.55366438     0.39000
C290        C  0.39135391  0.85066971  0.48051791    -0.04600
C291        C  0.41560421  0.82656103  0.46801588     0.02600
C292        C  0.43038477  0.83216417  0.42812799    -0.04200
C293        C  0.42086632  0.86369183  0.40229965    -0.00400
C294        C  0.39702759  0.88810932  0.41559186    -0.03000
C295        C  0.37586137  0.84391798  0.52063308     0.36300
C296        C  0.43476515  0.87116259  0.36124280     0.39900
C297        C  0.42404303  0.79507875  0.49602312     0.39000
C298        C  0.38846158  0.92063145  0.38920880     0.35900
C299        C  0.38570947  0.95181361  0.50401209     0.36600
C300        C  0.27007444  0.89326732  0.46157305     0.39900
N301        N  0.43058216  0.77012630  0.51867966    -0.38200
N302        N  0.36342831  0.83859511  0.55253814    -0.39800
N303        N  0.44504345  0.87732476  0.32804621    -0.37500
N304        N  0.38274978  0.94632593  0.36712707    -0.39900
N305        N  0.31947181  0.82077914  0.42189879    -0.39700
N306        N  0.24743620  0.87806616  0.45443076    -0.37300
N307        N  0.32957925  0.94803544  0.58998725    -0.38400
N308        N  0.40908113  0.96315576  0.51443645    -0.40000
C309        C  0.14692581  0.94746673  0.43956335    -0.05000
C310        C  0.14800292  0.91078718  0.45908573     0.09200
C311        C  0.17238603  0.90190036  0.48566890    -0.02300
C312        C  0.19609238  0.92889622  0.49126042    -0.00600
C313        C  0.19695478  0.96421028  0.46800920    -0.04200
C314        C  0.17088886  0.97426611  0.44429102     0.02800
C315        C  0.12394937  0.88114325  0.44980699     0.09600
C316        C  0.17327823  0.86458825  0.50684852     0.35500
C317        C  0.16694809  0.01218462  0.42573821     0.39000
C318        C  0.12354826  0.86283150  0.40979759    -0.04600
C319        C  0.10019590  0.83691076  0.39912888     0.02600
C320        C  0.07774748  0.82654937  0.42960446    -0.04200
C321        C  0.07815261  0.84514436  0.46987518    -0.00400
C322        C  0.10090970  0.87269324  0.47960987    -0.03000
C323        C  0.14754770  0.87040492  0.37936603     0.36300
C324        C  0.05563674  0.83561704  0.50178545     0.39900
C325        C  0.09908127  0.82237121  0.35581004     0.39000
C326        C  0.10066646  0.89252318  0.52028131     0.35900
C327        C  0.12079375  0.95757059  0.41434509     0.36600
C328        C  0.21883901  0.92081219  0.52287261     0.39900
N329        N  0.09870270  0.81141509  0.32101630    -0.38200
N330        N  0.16661292  0.87595366  0.35490533    -0.39800
N331        N  0.03767088  0.82810138  0.52730083    -0.37500
N332        N  0.10057861  0.90843125  0.55271493    -0.39900
N333        N  0.17394727  0.83479625  0.52369946    -0.39700
N334        N  0.23683751  0.91344381  0.54799211    -0.37300
N335        N  0.16129498  0.04157148  0.40997931    -0.38400
N336        N  0.09998702  0.96549994  0.39420400    -0.40000
C337        C  0.09649535  0.41454645  0.00152621    -0.05000
C338        C  0.10976225  0.41273588  0.96077962     0.09200
C339        C  0.09749876  0.43541087  0.92787803    -0.02300
C340        C  0.07163347  0.45864593  0.93533991    -0.00600
C341        C  0.05693864  0.45836679  0.97558180    -0.04200
C342        C  0.06969724  0.43567843  0.00837464     0.02800
C343        C  0.13436356  0.38359543  0.95197014     0.09600
C344        C  0.11124882  0.43435782  0.88590887     0.35500
C345        C  0.05384763  0.43021299  0.04820354     0.39000
C346        C  0.12781035  0.34349641  0.95516171    -0.04600
C347        C  0.15074816  0.31574181  0.94952138     0.02600
C348        C  0.17997654  0.32734220  0.93676579    -0.04200
C349        C  0.18642558  0.36724450  0.93190441    -0.00400
C350        C  0.16401676  0.39533404  0.94102349    -0.03000
C351        C  0.09710048  0.33048837  0.96256923     0.36300
C352        C  0.21526341  0.37924265  0.91431104     0.39900
C353        C  0.14413082  0.27492906  0.95651265     0.39000
C354        C  0.17129644  0.43622765  0.93787822     0.35900
C355        C  0.10998560  0.39331419  0.03635231     0.36600
C356        C  0.06052520  0.48185723  0.90068313     0.39900
N357        N  0.13885114  0.24248039  0.96247654    -0.38200
N358        N  0.07269022  0.31974784  0.96821401    -0.39800
N359        N  0.23809644  0.38871905  0.89963267    -0.37500
N360        N  0.17711672  0.46885094  0.93483928    -0.39900
N361        N  0.12236322  0.43382686  0.85253685    -0.39700
N362        N  0.05337770  0.49942176  0.87116426    -0.37300
N363        N  0.04174871  0.42343832  0.07996782    -0.38400
N364        N  0.12071434  0.37625167  0.06399607    -0.40000
C365        C  0.41553264  0.39540815  0.00017343    -0.05000
C366        C  0.39538432  0.40187883  0.96678913     0.09200
C367        C  0.39834824  0.43572117  0.94206940    -0.02300
C368        C  0.42171639  0.46274193  0.95024705    -0.00600
C369        C  0.44359152  0.45494336  0.98181241    -0.04200
C370        C  0.43976706  0.42116710  0.00708658     0.02800
C371        C  0.37184829  0.37210377  0.95633028     0.09600
C372        C  0.37766005  0.44210982  0.90727172     0.35500
C373        C  0.46075588  0.41196275  0.04042419     0.39000
C374        C  0.34188293  0.37640898  0.97092043    -0.04600
C375        C  0.31952992  0.34939495  0.95864110     0.02600
C376        C  0.32683331  0.31904040  0.93012010    -0.04200
C377        C  0.35712538  0.31381468  0.91715090    -0.00400
C378        C  0.37965416  0.33939119  0.93160341    -0.03000
C379        C  0.33431232  0.40820644  0.99925842     0.36300
C380        C  0.36529091  0.28155836  0.88960745     0.39900
C381        C  0.28905669  0.35311425  0.97500276     0.35400
C382        C  0.41104389  0.33108216  0.92262912     0.35900
C383        C  0.41148225  0.36161178  0.02707828     0.36600
C384        C  0.42239847  0.49810143  0.92570963     0.39900
N385        N  0.26486375  0.35591209  0.98862442    -0.38200
N386        N  0.32839149  0.43350319  0.02207057    -0.39800
N387        N  0.37180033  0.25593936  0.86753841    -0.37500
N388        N  0.43608936  0.32378556  0.91618472    -0.39900
N389        N  0.36125492  0.44698276  0.87938198    -0.39700
N390        N  0.42088925  0.52565032  0.90490087    -0.37300
N391        N  0.97656646  0.40255387  0.06750305    -0.38400
N392        N  0.40812828  0.33470773  0.04853196    -0.40000
C393        C  0.10056968  0.55717689  0.06026222    -0.05000
C394        C  0.10921404  0.58339265  0.02817022     0.09200
C395        C  0.09242259  0.58486134  0.99047757    -0.02300
C396        C  0.06675007  0.56095722  0.98529281    -0.00600
C397        C  0.05693217  0.53568732  0.01821102    -0.04200
C398        C  0.07428816  0.53415314  0.05594998     0.02800
C399        C  0.13268727  0.61383384  0.03726994     0.09600
C400        C  0.10077347  0.61257061  0.95779670     0.35500
C401        C  0.06524730  0.51074716  0.09182202     0.39000
C402        C  0.16269057  0.61022324  0.02270624    -0.04600
C403        C  0.18448454  0.63892060  0.03297532     0.02600
C404        C  0.17667830  0.67076482  0.05968133    -0.04200
C405        C  0.14574457  0.67559864  0.07097316    -0.00400
C406        C  0.12429897  0.64698904  0.06062251    -0.03000
C407        C  0.17123047  0.57647697  0.99789088     0.36300
C408        C  0.13511068  0.71086892  0.09153848     0.39900
C409        C  0.21438184  0.63604034  0.01447317     0.39000
C410        C  0.09333755  0.65136452  0.07480134     0.35900
C411        C  0.11844791  0.55502430  0.09864017     0.36600
C412        C  0.04928956  0.56499648  0.94693078     0.39900
N413        N  0.23793018  0.63392378  0.99858927    -0.38200
N414        N  0.17812932  0.54946240  0.97822972    -0.39800
N415        N  0.12631929  0.73890072  0.10769757    -0.37500
N416        N  0.06874331  0.65473852  0.08651210    -0.39900
N417        N  0.10737201  0.63479568  0.93183482    -0.39700
N418        N  0.03585929  0.56981737  0.91607026    -0.37300
N419        N  0.05992496  0.49346301  0.12243379    -0.38400
N420        N  0.13281055  0.55337281  0.12911558    -0.40000
C421        C  0.37693397  0.65383563  0.05752813    -0.05000
C422        C  0.36958294  0.61449857  0.04948685     0.09200
C423        C  0.33908723  0.60257067  0.05242204    -0.02300
C424        C  0.31653000  0.62924970  0.06503191    -0.00600
C425        C  0.32380494  0.66871841  0.07135484    -0.04200
C426        C  0.35413093  0.68085429  0.06776067     0.02800
C427        C  0.39414236  0.58583556  0.03870562     0.09600
C428        C  0.33087398  0.56283607  0.04242965     0.35500
C429        C  0.36223470  0.72090178  0.07655750     0.39000
C430        C  0.40093826  0.55483924  0.06632686    -0.04600
C431        C  0.42411358  0.52819588  0.05594677     0.02600
C432        C  0.44377294  0.53549219  0.02123153    -0.04200
C433        C  0.43743209  0.56753617  0.99456884    -0.00400
C434        C  0.41163850  0.59063106  0.00155275    -0.03000
C435        C  0.38484699  0.55115567  0.10640128     0.36300
C436        C  0.45741325  0.57777456  0.95987075     0.39900
C437        C  0.42668143  0.49322525  0.08085851     0.39000
C438        C  0.40329592  0.61985938  0.97062957     0.35900
C439        C  0.40813614  0.66653036  0.05603891     0.36600
C440        C  0.28625056  0.61559915  0.07409625     0.39900
N441        N  0.42692229  0.46552634  0.10154736    -0.38200
N442        N  0.37216714  0.54839858  0.13850296    -0.39800
N443        N  0.47236527  0.58787122  0.93178357    -0.37500
N444        N  0.39663387  0.64316381  0.94602397    -0.39900
N445        N  0.32435723  0.53110354  0.03452130    -0.39700
N446        N  0.26233196  0.60436198  0.08235584    -0.37300
N447        N  0.36917808  0.75264047  0.08368740    -0.38400
N448        N  0.43299777  0.67666742  0.05465427    -0.40000
C449        C  0.02270934  0.62613461  0.20456543    -0.05000
C450        C  0.99673093  0.62587567  0.17897113     0.09200
C451        C  0.47140655  0.64801456  0.19092841    -0.02300
C452        C  0.47272643  0.67256982  0.22666280    -0.00600
C453        C  0.99854760  0.67257371  0.25279971    -0.04200
C454        C  0.02350601  0.64902748  0.24165800     0.02800
C455        C  0.99599616  0.60150401  0.13977871     0.09600
C456        C  0.44364251  0.64444486  0.16724137     0.35500
C457        C  0.05002555  0.64802271  0.26836056     0.39000
C458        C  0.49274699  0.56116939  0.14339908    -0.04600
C459        C  0.49483334  0.53750702  0.10710320     0.02600
C460        C  0.99969889  0.55391293  0.06635371    -0.04200
C461        C  0.00224658  0.59476974  0.06280938    -0.00400
C462        C  0.99984212  0.61844606  0.09941419    -0.03000
C463        C  0.48701454  0.54403365  0.18481684     0.36300
C464        C  0.00794132  0.61306257  0.02227033     0.39900
C465        C  0.49323465  0.49599625  0.11299098     0.39000
C466        C  0.00115964  0.66040337  0.09575350     0.35900
C467        C  0.04843400  0.60220960  0.19307654     0.36600
C468        C  0.44834115  0.69970900  0.23453503     0.39900
N469        N  0.49224131  0.46331027  0.12093012    -0.38200
N470        N  0.48237727  0.53042961  0.21779512    -0.39800
N471        N  0.01280117  0.62958081  0.99101060    -0.37500
N472        N  0.00211156  0.69387726  0.09300498    -0.39900
N473        N  0.42127603  0.64097543  0.14896817    -0.39700
N474        N  0.42897629  0.72158522  0.24040941    -0.37300
N475        N  0.07127964  0.64711805  0.28941812    -0.38400
N476        N  0.06881954  0.58285100  0.18414589    -0.40000
C477        C  0.09000638  0.38953932  0.55340361    -0.05000
C478        C  0.11868852  0.38806609  0.57241425     0.09200
C479        C  0.12429919  0.36002426  0.60401474    -0.02300
C480        C  0.10184014  0.33288925  0.61560706    -0.00600
C481        C  0.07343888  0.33322546  0.59538546    -0.04200
C482        C  0.06746250  0.36232742  0.56484859     0.02800
C483        C  0.14360976  0.41492246  0.55836822     0.09600
C484        C  0.15375999  0.35813251  0.62353387     0.35500
C485        C  0.03792363  0.36496629  0.54566953     0.39000
C486        C  0.15353767  0.44490480  0.58534001    -0.04600
C487        C  0.17998401  0.46620849  0.57549861     0.02600
C488        C  0.19564331  0.45983250  0.53650836    -0.04200
C489        C  0.18458418  0.43062805  0.50875731    -0.00400
C490        C  0.15910100  0.40807615  0.51989310    -0.03000
C491        C  0.13636776  0.45357798  0.62363712     0.36300
C492        C  0.20070911  0.42116226  0.46997433     0.39900
C493        C  0.19109354  0.49275566  0.60734537     0.39000
C494        C  0.14928784  0.37679800  0.49225078     0.35900
C495        C  0.08385570  0.41888172  0.52166915     0.36600
C496        C  0.10902295  0.30284878  0.64611277     0.39900
N497        N  0.19836922  0.51263108  0.63514192    -0.38200
N498        N  0.12250230  0.46051111  0.65399031    -0.39800
N499        N  0.21322574  0.41193969  0.43923251    -0.37500
N500        N  0.14138480  0.35187365  0.47025520    -0.39900
N501        N  0.17723930  0.35661323  0.63914382    -0.39700
N502        N  0.11520617  0.27867675  0.66995903    -0.37300
N503        N  0.01444369  0.36768037  0.53020137    -0.38400
N504        N  0.07903645  0.44218409  0.49620338    -0.40000
C505        C  0.40043092  0.39465747  0.59223642    -0.05000
C506        C  0.39214431  0.39998036  0.54933472     0.09200
C507        C  0.40864271  0.38000701  0.51734541    -0.02300
C508        C  0.42983504  0.35106192  0.52841451    -0.00600
C509        C  0.43582394  0.34314371  0.57157115    -0.04200
C510        C  0.42245979  0.36694568  0.60311054     0.02800
C511        C  0.36444231  0.42353127  0.53861159     0.09600
C512        C  0.40352184  0.38893531  0.47299422     0.35500
C513        C  0.43210273  0.36419933  0.64684771     0.39000
C514        C  0.36224004  0.46329373  0.54941525    -0.04600
C515        C  0.33414037  0.48273089  0.54753699     0.02600
C516        C  0.30913245  0.46495554  0.52734623    -0.04200
C517        C  0.31296462  0.42679135  0.51121516    -0.00400
C518        C  0.33925397  0.40531726  0.51989150    -0.03000
C519        C  0.38912318  0.48452564  0.56149681     0.36300
C520        C  0.29161249  0.41075625  0.48139005     0.39900
C521        C  0.33156882  0.52047930  0.56736172     0.39000
C522        C  0.34024788  0.36433403  0.50908475     0.35900
C523        C  0.38632000  0.41762878  0.62554407     0.36600
C524        C  0.44433590  0.32817353  0.49542427     0.39900
N525        N  0.33097511  0.55034539  0.58423659    -0.38200
N526        N  0.41061217  0.50155192  0.57074094    -0.39800
N527        N  0.27597866  0.39746024  0.45597537    -0.37500
N528        N  0.34104895  0.33171176  0.50027470    -0.39900
N529        N  0.39946671  0.39602891  0.43758345    -0.39700
N530        N  0.45595889  0.30978284  0.46923148    -0.37300
N531        N  0.43972534  0.36360508  0.68187987    -0.38400
N532        N  0.37562428  0.43670086  0.65193772    -0.40000
C533        C  0.34725765  0.07116287  0.55592241    -0.05000
C534        C  0.35581590  0.09242237  0.51969342     0.09200
C535        C  0.34051304  0.08623881  0.48132826    -0.02300
C536        C  0.31631800  0.05946213  0.47937600    -0.00600
C537        C  0.30691724  0.03837298  0.51601606    -0.04200
C538        C  0.32223209  0.04577150  0.55484930     0.02800
C539        C  0.37877126  0.12422095  0.52418193     0.09600
C540        C  0.34889411  0.10881875  0.44426964     0.35500
C541        C  0.31232911  0.02949573  0.59486647     0.39000
C542        C  0.40934512  0.11803051  0.51363724    -0.04600
C543        C  0.43139767  0.14551171  0.52594313     0.02600
C544        C  0.42321409  0.17723027  0.55211432    -0.04200
C545        C  0.39237872  0.18500591  0.55940219    -0.00400
C546        C  0.37026875  0.15943914  0.54374533    -0.03000
C547        C  0.41803277  0.08316492  0.49085827     0.36300
C548        C  0.38334248  0.21956515  0.58267547     0.39900
C549        C  0.46217329  0.14150692  0.51110069     0.39000
C550        C  0.33872704  0.16962435  0.54705501     0.35900
C551        C  0.36416864  0.07620754  0.59494368     0.36600
C552        C  0.29903634  0.05721159  0.44052474     0.39900
N553        N  0.48645745  0.13882419  0.49781168    -0.38200
N554        N  0.42485707  0.05529768  0.47260085    -0.39800
N555        N  0.37606625  0.24707652  0.60124677    -0.37500
N556        N  0.31365356  0.17852948  0.54887450    -0.39900
N557        N  0.35559510  0.12690224  0.41474575    -0.39700
N558        N  0.28542334  0.05622893  0.40933119    -0.37300
N559        N  0.30640728  0.01790045  0.62838697    -0.38400
N560        N  0.37773359  0.08031454  0.62590045    -0.40000
C561        C  0.08822025  0.10409591  0.54126601    -0.05000
C562        C  0.11875569  0.11610783  0.54246510     0.09200
C563        C  0.12544626  0.15469681  0.55429143    -0.02300
C564        C  0.10212122  0.18160811  0.56075856    -0.00600
C565        C  0.07182249  0.16902486  0.56326491    -0.04200
C566        C  0.06513311  0.12962729  0.55498668     0.02800
C567        C  0.14408413  0.08890074  0.53106147     0.09600
C568        C  0.15638459  0.16670463  0.56110801     0.35500
C569        C  0.03549715  0.11430707  0.56485225     0.39000
C570        C  0.16376905  0.09806204  0.49705715    -0.04600
C571        C  0.18971971  0.07553581  0.48943498     0.02600
C572        C  0.19516919  0.04156642  0.51331833    -0.04200
C573        C  0.17432807  0.03088997  0.54545741    -0.00400
C574        C  0.14970331  0.05533728  0.55548616    -0.03000
C575        C  0.15744917  0.13101028  0.46984421     0.36300
C576        C  0.17746622  0.99465502  0.56806543     0.39900
C577        C  0.21007177  0.08677369  0.45539092     0.39000
C578        C  0.13069074  0.04650646  0.59190375     0.35900
C579        C  0.08054172  0.06552582  0.52627645     0.36600
C580        C  0.10953566  0.22253668  0.56344647     0.39900
N581        N  0.22559843  0.09663564  0.42779162    -0.38200
N582        N  0.15262075  0.15744278  0.44834091    -0.39800
N583        N  0.17855645  0.96581207  0.58672968    -0.37500
N584        N  0.11547115  0.03942407  0.62087473    -0.39900
N585        N  0.18095258  0.17647997  0.56689941    -0.39700
N586        N  0.11595069  0.25507084  0.56426574    -0.37300
N587        N  0.01224008  0.10149153  0.57407484    -0.38400
N588        N  0.07447749  0.03475135  0.51418634    -0.40000
C589        C  0.01910848  0.34939085  0.80573646    -0.05000
C590        C  0.99183331  0.35975525  0.82572296     0.09200
C591        C  0.46417697  0.34780382  0.80812155    -0.02300
C592        C  0.46388837  0.32294808  0.77250991    -0.00600
C593        C  0.99126199  0.31289102  0.75190734    -0.04200
C594        C  0.01887009  0.32672764  0.76859735     0.02800
C595        C  0.99259226  0.38557109  0.86371692     0.09600
C596        C  0.43604079  0.36280340  0.82509199     0.35500
C597        C  0.04726469  0.31891045  0.74721148     0.39000
C598        C  0.98788311  0.42553461  0.85865160    -0.04600
C599        C  0.99078354  0.45071693  0.89354206     0.02600
C600        C  0.99850168  0.43626949  0.93415803    -0.04200
C601        C  0.50364678  0.39593027  0.93890103    -0.00400
C602        C  0.50073671  0.37076393  0.90369623    -0.03000
C603        C  0.98101852  0.44086828  0.81687877     0.36300
C604        C  0.51207132  0.37950137  0.97927942     0.39900
C605        C  0.98735544  0.49188583  0.88629487     0.39000
C606        C  0.50629449  0.32946839  0.90838959     0.35900
C607        C  0.04748872  0.36345029  0.82254758     0.36600
C608        C  0.43546304  0.30674565  0.75833470     0.39900
N609        N  0.98500777  0.52436359  0.87791757    -0.38200
N610        N  0.97558736  0.45287854  0.78351138    -0.39800
N611        N  0.51890736  0.36406643  0.01033502    -0.37500
N612        N  0.51061325  0.29654056  0.91215885    -0.39900
N613        N  0.41354635  0.37553428  0.83761076    -0.39700
N614        N  0.41274190  0.29381110  0.74723167    -0.37300
N615        N  0.07022103  0.31310849  0.73083037    -0.38400
N616        N  0.07015296  0.37458890  0.83582643    -0.40000
C617        C  0.34236065  0.11630212  0.97526605    -0.05000
C618        C  0.36029596  0.09803232  0.94375596     0.09200
C619        C  0.35361397  0.10413246  0.90053855    -0.02300
C620        C  0.33159992  0.13156781  0.88892401    -0.00600
C621        C  0.31555692  0.15272684  0.92047551    -0.04200
C622        C  0.32031764  0.14381115  0.96377006     0.02800
C623        C  0.38804249  0.07586300  0.95611643     0.09600
C624        C  0.36956316  0.08241862  0.86783860     0.35500
C625        C  0.30410359  0.16471454  0.99679273     0.39000
C626        C  0.39051410  0.03549797  0.94889014    -0.04600
C627        C  0.41762811  0.01574920  0.95832815     0.02600
C628        C  0.44114628  0.03539717  0.97988908    -0.04200
C629        C  0.43694313  0.07486814  0.99095452    -0.00400
C630        C  0.41195366  0.09560430  0.97608633    -0.03000
C631        C  0.36473145  0.01427582  0.93288537     0.36300
C632        C  0.45582125  0.09284380  0.02281520     0.39900
C633        C  0.42029271  0.97506076  0.94745126     0.39000
C634        C  0.41073241  0.13737412  0.98218223     0.35900
C635        C  0.34724963  0.10747652  0.01973631     0.36600
C636        C  0.32574706  0.13791209  0.84421901     0.39900
N637        N  0.42144912  0.94244492  0.93871191    -0.38200
N638        N  0.34385242  0.99789924  0.92019757    -0.39800
N639        N  0.96939786  0.10712047  0.04992126    -0.37500
N640        N  0.40985600  0.17065936  0.98707585    -0.39900
N641        N  0.38195905  0.06466853  0.84180372    -0.39700
N642        N  0.32153197  0.14246796  0.80836087    -0.37300
N643        N  0.29122222  0.18143915  0.02316000    -0.38400
N644        N  0.35129203  0.10050163  0.05517690    -0.40000
C645        C  0.15721610  0.10619964  0.95067725    -0.05000
C646        C  0.12821081  0.10993220  0.93315205     0.09200
C647        C  0.12253973  0.13910391  0.90301994    -0.02300
C648        C  0.14525205  0.16582721  0.89204343    -0.00600
C649        C  0.17428132  0.16257612  0.90994767    -0.04200
C650        C  0.18036600  0.13219287  0.93871282     0.02800
C651        C  0.10286661  0.08520548  0.94884904     0.09600
C652        C  0.09315768  0.14188444  0.88355086     0.35500
C653        C  0.21049345  0.12713063  0.95532885     0.39000
C654        C  0.08627686  0.09709755  0.98481384    -0.04600
C655        C  0.06171232  0.07476689  0.99923951     0.02600
C656        C  0.05314658  0.04054034  0.97743625    -0.04200
C657        C  0.06971600  0.02891155  0.94101491    -0.00400
C658        C  0.09469309  0.05105851  0.92707224    -0.03000
C659        C  0.09418070  0.13292655  0.00646734     0.36300
C660        C  0.06102467  0.99493987  0.91694907     0.39900
C661        C  0.04508573  0.08762181  0.03655704     0.39000
C662        C  0.11182172  0.03919909  0.88985197     0.35900
C663        C  0.16298888  0.07579220  0.98132626     0.36600
C664        C  0.13807027  0.19807153  0.86427244     0.39900
N665        N  0.03255478  0.09879641  0.06649922    -0.38200
N666        N  0.10044738  0.16157147  0.02356425    -0.39800
N667        N  0.05496065  0.96828988  0.89626006    -0.37500
N668        N  0.12555551  0.02986418  0.86016552    -0.39900
N669        N  0.06995036  0.14410180  0.86731209    -0.39700
N670        N  0.13229129  0.22392253  0.84240134    -0.37300
N671        N  0.23452640  0.12271953  0.96849234    -0.38400
N672        N  0.16738099  0.05149121  0.00581354    -0.40000
C673        C  0.99919146  0.10766381  0.88458631    -0.05000
C674        C  0.99413912  0.08493950  0.84811964     0.09200
C675        C  0.48968211  0.04471293  0.85265700    -0.02300
C676        C  0.49035456  0.02730346  0.89337615    -0.00600
C677        C  0.99616473  0.04971311  0.93047967    -0.04200
C678        C  0.00050040  0.09044116  0.92527691     0.02800
C679        C  0.99191220  0.10429548  0.80536894     0.09600
C680        C  0.48383272  0.02127012  0.81523604     0.35500
C681        C  0.00541265  0.11632305  0.96065698     0.39000
C682        C  0.01595677  0.10255957  0.77585835    -0.04600
C683        C  0.01542602  0.12531173  0.73838685     0.02600
C684        C  0.99083820  0.15076756  0.73028656    -0.04200
C685        C  0.46533506  0.14884296  0.75809696    -0.00400
C686        C  0.46642862  0.12688420  0.79582366    -0.03000
C687        C  0.04208544  0.07892161  0.78532406     0.36300
C688        C  0.43767107  0.16962662  0.74899335     0.39900
C689        C  0.04044682  0.12220903  0.70863682     0.39000
C690        C  0.44224940  0.13029845  0.82688125     0.35900
C691        C  0.00232457  0.14950648  0.88012766     0.36600
C692        C  0.48489554  0.98599586  0.89629551     0.39900
N693        N  0.06039221  0.11949873  0.68490517    -0.38200
N694        N  0.06292761  0.06011490  0.79299194    -0.39800
N695        N  0.41548266  0.18597991  0.74204522    -0.37500
N696        N  0.42359009  0.13431801  0.85233779    -0.39900
N697        N  0.47927063  0.00256010  0.78537162    -0.39700
N698        N  0.48025897  0.95296516  0.89642768    -0.37300
N699        N  0.00924386  0.14024716  0.98592711    -0.38400
N700        N  0.00461228  0.18279838  0.87643484    -0.40000
C701        C  0.35748782  0.88442583  0.10281167    -0.05000
C702        C  0.36093491  0.90002214  0.06178502     0.09200
C703        C  0.34181641  0.88716887  0.02897931    -0.02300
C704        C  0.32020850  0.85765478  0.03667928    -0.00600
C705        C  0.31811546  0.83996605  0.07717394    -0.04200
C706        C  0.33683283  0.85405240  0.11036029     0.02800
C707        C  0.38819286  0.92437341  0.05192550     0.09600
C708        C  0.34554366  0.90294767  0.98665715     0.35500
C709        C  0.33599118  0.83675560  0.15237486     0.39000
C710        C  0.41492110  0.90567328  0.03930947    -0.04600
C711        C  0.44188836  0.92690596  0.03383535     0.02600
C712        C  0.44255952  0.96793275  0.03994013    -0.04200
C713        C  0.41562488  0.98617491  0.05479755    -0.00400
C714        C  0.38864348  0.96455078  0.06009662    -0.03000
C715        C  0.41487059  0.86372464  0.03382073     0.36300
C716        C  0.41631038  0.02554822  0.07097515     0.39900
C717        C  0.46913435  0.90468349  0.02727624     0.39000
C718        C  0.36156597  0.98324926  0.07605494     0.35900
C719        C  0.37612578  0.89869984  0.13720054     0.36600
C720        C  0.30202361  0.84351648  0.00184014     0.39900
N721        N  0.48941472  0.88370889  0.02539649    -0.38200
N722        N  0.41473090  0.83033081  0.02974419    -0.39800
N723        N  0.41577305  0.05617462  0.08612755    -0.37500
N724        N  0.34002857  0.99813327  0.08907861    -0.39900
N725        N  0.34858645  0.91519924  0.95272475    -0.39700
N726        N  0.28777877  0.83225124  0.97372566    -0.37300
N727        N  0.33622413  0.82311942  0.18593284    -0.38400
N728        N  0.39057041  0.90998670  0.16508861    -0.40000
C729        C  0.12698194  0.86757903  0.09863697    -0.05000
C730        C  0.12769960  0.88752323  0.05971710     0.09200
C731        C  0.15197093  0.88093930  0.03139347    -0.02300
C732        C  0.17486648  0.85383399  0.04150197    -0.00600
C733        C  0.17403233  0.83336876  0.08063860    -0.04200
C734        C  0.14992278  0.84121275  0.10942972     0.02800
C735        C  0.10328359  0.91635251  0.04940369     0.09600
C736        C  0.15362242  0.90281715  0.99214653     0.35500
C737        C  0.14803844  0.82219694  0.15056431     0.39000
C738        C  0.10420582  0.95412247  0.06642064    -0.04600
C739        C  0.08120210  0.98135100  0.05724821     0.02600
C740        C  0.05525489  0.96999024  0.03359091    -0.04200
C741        C  0.05645716  0.93321631  0.01316446    -0.00400
C742        C  0.07965688  0.90631662  0.02193885    -0.03000
C743        C  0.12919685  0.96496249  0.09358891     0.36300
C744        C  0.03542864  0.92392077  0.97986053     0.39900
C745        C  0.08668266  0.02092578  0.07022393     0.39000
C746        C  0.07915588  0.86797733  0.00279064     0.35900
C747        C  0.10253944  0.87403974  0.12826489     0.36600
C748        C  0.19973198  0.84836534  0.01204426     0.39900
N749        N  0.09403201  0.05138407  0.08186062    -0.38200
N750        N  0.14901847  0.97345059  0.11544119    -0.39800
N751        N  0.01941399  0.91531987  0.95260580    -0.37500
N752        N  0.07876709  0.83736927  0.98757526    -0.39900
N753        N  0.15486765  0.92048504  0.96096973    -0.39700
N754        N  0.21948026  0.84421866  0.98827518    -0.37300
N755        N  0.14647567  0.80754620  0.18355705    -0.38400
N756        N  0.08369239  0.87806304  0.15329417    -0.40000
C757        C  0.48673146  0.91257503  0.13930361    -0.05000
C758        C  0.01434563  0.91457955  0.16120045     0.09200
C759        C  0.03319098  0.94726879  0.15404997    -0.02300
C760        C  0.02529566  0.97457894  0.12258177    -0.00600
C761        C  0.00109165  0.96663824  0.09506805    -0.04200
C762        C  0.47821402  0.94376479  0.11374394     0.02800
C763        C  0.01961203  0.88665403  0.19681781     0.09600
C764        C  0.05977612  0.95393440  0.17955601     0.35500
C765        C  0.45271145  0.96432939  0.13159168     0.39000
C766        C  0.02267100  0.84658573  0.18789795    -0.04600
C767        C  0.02171221  0.81933383  0.22112123     0.02600
C768        C  0.01801409  0.83186104  0.26356063    -0.04200
C769        C  0.51709483  0.87184408  0.27291627    -0.00400
C770        C  0.51688282  0.89915929  0.23961057    -0.03000
C771        C  0.02545445  0.83321392  0.14422956     0.36300
C772        C  0.51528291  0.88478376  0.31675993     0.39900
C773        C  0.02462149  0.77831955  0.21139754     0.39000
C774        C  0.51156306  0.93976644  0.24935696     0.35900
C775        C  0.46456827  0.88289840  0.14925018     0.36600
C776        C  0.03399662  0.01451654  0.12893992     0.39900
N777        N  0.02719969  0.74580763  0.20283992    -0.38200
N778        N  0.02760750  0.82252132  0.10945763    -0.39800
N779        N  0.51392505  0.89512115  0.35173312    -0.37500
N780        N  0.50731096  0.97218211  0.25701724    -0.39900
N781        N  0.08110537  0.95938624  0.19967553    -0.39700
N782        N  0.04007846  0.04634960  0.13694630    -0.37300
N783        N  0.43299195  0.98015222  0.14850180    -0.38400
N784        N  0.44722929  0.85880814  0.15716074    -0.40000
C785        C  0.49931131  0.98440924  0.05034428     0.02800
C786        C  0.52687802  0.99475392  0.02809023     0.02800
C787        C  0.52540624  0.01949578  0.99187064     0.02800
C788        C  0.99728215  0.02964429  0.97366728     0.02800
C789        C  0.97011434  0.01608320  0.99292562     0.02800
C790        C  0.97091048  0.99108249  0.02925652     0.02800
O791        O  0.97125322  0.28994894  0.68602976    -0.84900
O792        O  0.94229829  0.28449625  0.60986680    -0.81900
C793        C  0.95389678  0.30847221  0.58417574     0.98600
O794        O  0.97987343  0.30269180  0.56880284    -0.81900
O795        O  0.53984116  0.28310601  0.57289372    -0.84600
C796        C  0.55103030  0.30168792  0.60392311     1.03100
O797        O  0.54453488  0.29232384  0.64171133    -0.77300
O798        O  0.51188994  0.26245387  0.70973745    -0.77500
C799        C  0.49142415  0.28742995  0.71375509     1.03100
O800        O  0.97175474  0.20664695  0.69344882    -0.84800
O801        O  0.94673450  0.20162862  0.61376568    -0.81900
C802        C  0.94626222  0.20143305  0.57371787     0.98600
O803        O  0.96374094  0.22304422  0.55232757    -0.81900
O804        O  0.52373221  0.20163627  0.56217058    -0.84500
C805        C  0.54871979  0.19634150  0.58021287     1.03100
O806        O  0.55542994  0.21572483  0.61273600    -0.77400
O807        O  0.51659429  0.18691943  0.67472639    -0.77500
C808        C  0.49293193  0.18220342  0.69675802     1.03100
Cr809      Cr  0.96095720  0.24558651  0.64870199     1.93700
Cr810      Cr  0.50145018  0.25193176  0.56857745     1.93200
Cr811      Cr  0.52938419  0.23983145  0.65684250     1.39100
O812        O  0.49710447  0.24572209  0.62441384    -1.22600
C813        C  0.49972741  0.46410399  0.97087137     0.02800
C814        C  0.97194095  0.47903698  0.98700518     0.02800
C815        C  0.97218074  0.51229212  0.01371801     0.02800
C816        C  0.50016808  0.52753857  0.02830865     0.02800
C817        C  0.52805578  0.51269364  0.01232521     0.02800
C818        C  0.52784959  0.48000874  0.98434862     0.02800
O819        O  0.97809162  0.70238894  0.31496063    -0.84900
O820        O  0.94490825  0.72094738  0.38607949    -0.81900
C821        C  0.95203296  0.69666300  0.41441567     0.98600
O822        O  0.97741811  0.69890831  0.43234845    -0.81900
O823        O  0.53912109  0.71036041  0.43697521    -0.84600
C824        C  0.55042915  0.68706178  0.40985179     1.03100
O825        O  0.54581094  0.69187639  0.37080489    -0.77300
O826        O  0.52353405  0.71915588  0.29541662    -0.77500
C827        C  0.50020815  0.69886254  0.29005922     1.03100
O828        O  0.98927874  0.78324960  0.29844459    -0.84800
O829        O  0.95921340  0.80097264  0.37305551    -0.81900
C830        C  0.95382208  0.80377099  0.41227463     0.98600
O831        O  0.96693629  0.78104152  0.43776477    -0.81900
O832        O  0.52890276  0.79446471  0.43448828    -0.84500
C833        C  0.55531479  0.79523975  0.41905938     1.03100
O834        O  0.56339294  0.76843429  0.39417643    -0.77400
O835        O  0.53429491  0.79637807  0.32345268    -0.77500
C836        C  0.51346962  0.80290292  0.29751662     1.03100
Cr837      Cr  0.97049630  0.75161293  0.34550378     1.93700
Cr838      Cr  0.50323785  0.74640907  0.43134085     1.93200
Cr839      Cr  0.53903528  0.74419101  0.34815421     1.39100
O840        O  0.50404681  0.74741091  0.37507165    -1.22600
C841        C  0.75317050  0.97789586  0.45688643     0.02800
C842        C  0.72431192  0.99043921  0.47268617     0.02800
C843        C  0.72358386  0.01899460  0.50504819     0.02800
C844        C  0.75087929  0.03149866  0.52397604     0.02800
C845        C  0.77874202  0.01343599  0.51319216     0.02800
C846        C  0.77815192  0.98011673  0.48567962     0.02800
O847        O  0.73127169  0.77793708  0.20307625    -0.84900
O848        O  0.70286930  0.79740503  0.13050569    -0.81900
C849        C  0.69766200  0.80381066  0.09194820     0.98600
O850        O  0.71136886  0.78420430  0.06363617    -0.81900
O851        O  0.77225449  0.80243065  0.06883406    -0.84600
C852        C  0.79814911  0.80550081  0.08486957     1.03100
O853        O  0.80771971  0.77857532  0.10796817    -0.77300
O854        O  0.77435350  0.79958763  0.17855499    -0.77500
C855        C  0.75258426  0.80225035  0.20428808     1.03100
O856        O  0.72666043  0.69722023  0.18148428    -0.84800
O857        O  0.69309330  0.71716498  0.11075789    -0.81900
C858        C  0.69995533  0.69827831  0.07758804     0.98600
O859        O  0.72559704  0.70311077  0.06046091    -0.81900
O860        O  0.78753655  0.71937649  0.06054886    -0.84500
C861        C  0.80065501  0.69664875  0.08646076     1.03100
O862        O  0.79627295  0.69953556  0.12591345    -0.77400
O863        O  0.76985936  0.71981949  0.20187190    -0.77500
C864        C  0.74859973  0.69591738  0.20679807     1.03100
Cr865      Cr  0.71602186  0.74729465  0.15382715     1.93700
Cr866      Cr  0.74947495  0.75200249  0.06760247     1.93200
Cr867      Cr  0.78432138  0.74931388  0.15140277     1.39100
O868        O  0.74975777  0.74876564  0.12397611    -1.22600
C869        C  0.75256293  0.47073147  0.53872856     0.02800
C870        C  0.77948910  0.48570968  0.51978260     0.02800
C871        C  0.77748102  0.51604505  0.48926517     0.02800
C872        C  0.74862957  0.52776190  0.47394703     0.02800
C873        C  0.72174794  0.51132425  0.49157908     0.02800
C874        C  0.72369371  0.48235169  0.52374103     0.02800
O875        O  0.76926357  0.28358744  0.79910314    -0.84900
O876        O  0.80014279  0.29106987  0.87318117    -0.81900
C877        C  0.80317833  0.29302603  0.91286739     0.98600
O878        O  0.78752559  0.27196589  0.93756643    -0.81900
O879        O  0.72724309  0.29277051  0.93516972    -0.84600
C880        C  0.70111444  0.29740175  0.92046513     1.03100
O881        O  0.69183943  0.27562456  0.89133321    -0.77300
O882        O  0.72722337  0.30542638  0.82663941    -0.77500
C883        C  0.74962054  0.31006864  0.80226080     1.03100
O884        O  0.77024928  0.20069559  0.80874356    -0.84800
O885        O  0.80534203  0.20904859  0.87997332    -0.81900
C886        C  0.79589934  0.18594066  0.90813269     0.98600
O887        O  0.77082421  0.19162520  0.92634489    -0.81900
O888        O  0.71065767  0.21056088  0.92881506    -0.84500
C889        C  0.69755982  0.19188099  0.89928717     1.03100
O890        O  0.70221994  0.20010869  0.86075455    -0.77400
O891        O  0.72924413  0.23002534  0.78896268    -0.77500
C892        C  0.74887832  0.20425634  0.78294286     1.03100
Cr893      Cr  0.78362739  0.24602604  0.84254941     1.93700
Cr894      Cr  0.74906960  0.24216543  0.92787155     1.93200
Cr895      Cr  0.71537188  0.25240343  0.84411195     1.39100
O896        O  0.74959558  0.24668361  0.87188897    -1.22600
C897        C  0.76079236  0.45338070  0.65761396    -0.05000
C898        C  0.75609441  0.41323577  0.66067226     0.09200
C899        C  0.75170065  0.39090456  0.62374967    -0.02300
C900        C  0.75012635  0.40902059  0.58375923    -0.00600
C901        C  0.75485404  0.44960384  0.58020506    -0.04200
C902        C  0.76091434  0.47138106  0.61754177     0.02800
C903        C  0.75569927  0.39392076  0.70283513     0.09600
C904        C  0.74882993  0.34899562  0.62716727     0.35500
C905        C  0.76508429  0.51301237  0.61573159     0.39000
C906        C  0.72867673  0.39147812  0.72642961    -0.04600
C907        C  0.72654967  0.36583049  0.76114761     0.02600
C908        C  0.75226373  0.34438015  0.77376208    -0.04200
C909        C  0.78051437  0.35264042  0.75429432    -0.00400
C910        C  0.78176899  0.37532344  0.71741906    -0.03000
C911        C  0.70277816  0.41419601  0.71378170     0.36300
C912        C  0.80843923  0.33753789  0.77152300     0.39900
C913        C  0.69754826  0.36047823  0.78193377     0.39000
C914        C  0.80933675  0.37684270  0.69255102     0.35900
C915        C  0.76475387  0.47624297  0.69598734     0.36600
C916        C  0.74301796  0.38510712  0.54741308     0.39900
N917        N  0.67432272  0.35626961  0.79828027    -0.38200
N918        N  0.68222222  0.43264336  0.70397404    -0.39800
N919        N  0.83074182  0.32569582  0.78521774    -0.37500
N920        N  0.83117085  0.37683660  0.67231170    -0.39900
N921        N  0.74678160  0.31561276  0.63006984    -0.39700
N922        N  0.73702515  0.36365006  0.52041863    -0.37300
N923        N  0.76787519  0.54636142  0.61636049    -0.38400
N924        N  0.76762297  0.49445503  0.72663844    -0.40000
C925        C  0.77083991  0.64954807  0.31326891    -0.05000
C926        C  0.74901848  0.62013706  0.31782916     0.09200
C927        C  0.72759476  0.61437212  0.28548015    -0.02300
C928        C  0.72762428  0.63827308  0.24897266    -0.00600
C929        C  0.74926730  0.66853378  0.24425863    -0.04200
C930        C  0.77119796  0.67344288  0.27698819     0.02800
C931        C  0.74804857  0.59634339  0.35774512     0.09600
C932        C  0.70496986  0.58417611  0.29025233     0.35500
C933        C  0.79396742  0.70379758  0.27508892     0.39000
C934        C  0.73925296  0.61366081  0.39650487    -0.04600
C935        C  0.73873962  0.59185124  0.43440877     0.02600
C936        C  0.74734587  0.55213847  0.43415221    -0.04200
C937        C  0.75574564  0.53489985  0.39483500    -0.00400
C938        C  0.75647526  0.55694642  0.35711700    -0.03000
C939        C  0.73063801  0.65439710  0.39735131     0.36300
C940        C  0.76223848  0.49373834  0.39244305     0.39900
C941        C  0.72927268  0.61166940  0.47269246     0.39000
C942        C  0.76625395  0.53914496  0.31754555     0.35900
C943        C  0.79239369  0.65632961  0.34709067     0.36600
C944        C  0.70506203  0.63131071  0.21668429     0.39900
N945        N  0.72132016  0.63065549  0.50098789    -0.38200
N946        N  0.72375409  0.68678194  0.39806660    -0.39800
N947        N  0.76666759  0.46076229  0.38950180    -0.37500
N948        N  0.77394642  0.52495320  0.28592948    -0.39900
N949        N  0.68699929  0.56003006  0.29409495    -0.39700
N950        N  0.68692063  0.62566186  0.19114399    -0.37300
N951        N  0.81214869  0.72792214  0.27405925    -0.38400
N952        N  0.80903617  0.66241386  0.37446239    -0.40000
C953        C  0.74496516  0.85056245  0.31230622    -0.05000
C954        C  0.75342411  0.88902930  0.30293214     0.09200
C955        C  0.76059571  0.89953297  0.26074920    -0.02300
C956        C  0.75995808  0.87136651  0.22817631    -0.00600
C957        C  0.75255308  0.83242800  0.23787131    -0.04200
C958        C  0.74464929  0.82230299  0.28003724     0.02800
C959        C  0.75539224  0.91822021  0.33776243     0.09600
C960        C  0.76834884  0.93945740  0.25096030     0.35500
C961        C  0.73656350  0.78262031  0.29080453     0.39000
C962        C  0.78319373  0.92577078  0.35755229    -0.04600
C963        C  0.78430476  0.95258385  0.39143922     0.02600
C964        C  0.75688167  0.96528959  0.41032817    -0.04200
C965        C  0.73313669  0.96914219  0.38122216    -0.00400
C966        C  0.73079158  0.94254532  0.34738475    -0.03000
C967        C  0.81037037  0.90684820  0.34241289     0.36300
C968        C  0.72303882  0.00806071  0.37263086     0.39900
C969        C  0.81250797  0.97175546  0.40078179     0.39000
C970        C  0.70512770  0.94415717  0.31925633     0.35900
C971        C  0.73624099  0.83964014  0.35507178     0.36600
C972        C  0.76549407  0.88290630  0.18451229     0.39900
N973        N  0.83489843  0.98766800  0.40788420    -0.38200
N974        N  0.83180229  0.89134179  0.32995297    -0.39800
N975        N  0.71650350  0.03915896  0.36251427    -0.37500
N976        N  0.68476915  0.94587587  0.29657563    -0.39900
N977        N  0.77443836  0.97136894  0.24330704    -0.39700
N978        N  0.76963874  0.89225216  0.14966895    -0.37300
N979        N  0.72980443  0.75122120  0.29977558    -0.38400
N980        N  0.72867456  0.82926669  0.38838496    -0.40000
C981        C  0.77262534  0.15092580  0.68272908    -0.05000
C982        C  0.74499887  0.13480150  0.66948184     0.09200
C983        C  0.71837143  0.14253478  0.69253834    -0.02300
C984        C  0.71964608  0.16453444  0.73022581    -0.00600
C985        C  0.74748646  0.18016352  0.74404840    -0.04200
C986        C  0.77371040  0.17456289  0.71911222     0.02800
C987        C  0.74426688  0.10887500  0.63163955     0.09600
C988        C  0.68968403  0.12806468  0.67713407     0.35500
C989        C  0.80137851  0.19509757  0.72912742     0.39000
C990        C  0.74170550  0.06850380  0.63715319    -0.04600
C991        C  0.74340055  0.04363419  0.60176422     0.02600
C992        C  0.74917142  0.05886916  0.56078253    -0.04200
C993        C  0.75233551  0.09946299  0.55560912    -0.00400
C994        C  0.74855862  0.12439319  0.59074672    -0.03000
C995        C  0.73878957  0.05246429  0.67959739     0.36300
C996        C  0.76142308  0.11601299  0.51535504     0.39900
C997        C  0.74258493  0.00203315  0.60861046     0.39000
C998        C  0.74933894  0.16619521  0.58520557     0.35900
C999        C  0.80002927  0.14320068  0.65887821     0.36600
C1000       C  0.69225824  0.17052625  0.75476951     0.39900
N1001       N  0.74292026  0.96911564  0.61568300    -0.38200
N1002       N  0.73664648  0.03971275  0.71345686    -0.39800
N1003       N  0.76938600  0.13094529  0.48435895    -0.37500
N1004       N  0.74972405  0.19956705  0.58109358    -0.39900
N1005       N  0.66684768  0.11664296  0.66464763    -0.39700
N1006       N  0.67019279  0.17512628  0.77390609    -0.37300
N1007       N  0.82334937  0.21181351  0.73670198    -0.38400
N1008       N  0.82197670  0.13723312  0.63998341    -0.40000
C1009       C  0.58580526  0.60014007  0.46608482    -0.05000
C1010       C  0.61437783  0.59864088  0.44594809     0.09200
C1011       C  0.62122183  0.62551334  0.41347497    -0.02300
C1012       C  0.60058408  0.65476749  0.40276391    -0.00600
C1013       C  0.57203832  0.65646166  0.42289301    -0.04200
C1014       C  0.56459914  0.62879495  0.45435814     0.02800
C1015       C  0.63840232  0.57111354  0.46070259     0.09600
C1016       C  0.64946979  0.62293669  0.39039486     0.35500
C1017       C  0.53493260  0.62913553  0.47387995     0.39000
C1018       C  0.64908279  0.54135347  0.43370300    -0.04600
C1019       C  0.67603014  0.52139798  0.44326209     0.02600
C1020       C  0.69153141  0.52912576  0.48165252    -0.04200
C1021       C  0.67903128  0.55658483  0.51038388    -0.00400
C1022       C  0.65320044  0.57812432  0.49944089    -0.03000
C1023       C  0.63289006  0.53248120  0.39494121     0.36300
C1024       C  0.69470714  0.56658202  0.54912079     0.39900
C1025       C  0.68794201  0.49471145  0.41190869     0.39000
C1026       C  0.64315332  0.60966134  0.52672440     0.35900
C1027       C  0.57824360  0.57202366  0.49866554     0.36600
C1028       C  0.60946487  0.68431176  0.37223771     0.39900
N1029       N  0.69596896  0.47428931  0.38489241    -0.38200
N1030       N  0.62007774  0.52551432  0.36394481    -0.39800
N1031       N  0.70711324  0.57658670  0.57943013    -0.37500
N1032       N  0.63521990  0.63494700  0.54831364    -0.39900
N1033       N  0.67146519  0.62043809  0.37074591    -0.39700
N1034       N  0.61662649  0.70793931  0.34810561    -0.37300
N1035       N  0.51122262  0.62910371  0.48941104    -0.38400
N1036       N  0.57233096  0.54966001  0.52480955    -0.40000
C1037       C  0.83169830  0.60261403  0.48342499    -0.05000
C1038       C  0.85640167  0.58741318  0.46056664     0.09200
C1039       C  0.85561265  0.54831223  0.44717517    -0.02300
C1040       C  0.82945969  0.52548734  0.45369007    -0.00600
C1041       C  0.80494564  0.54016226  0.47810937    -0.04200
C1042       C  0.80713675  0.57854312  0.49434265     0.02800
C1043       C  0.88260666  0.61312740  0.44892667     0.09600
C1044       C  0.88200602  0.53149014  0.42682820     0.35500
C1045       C  0.78588962  0.59254494  0.52589272     0.39000
C1046       C  0.90223411  0.62774288  0.48035797    -0.04600
C1047       C  0.92528933  0.65448525  0.46941417     0.02600
C1048       C  0.92957209  0.66593171  0.42654067    -0.04200
C1049       C  0.91104528  0.64895444  0.39493166    -0.00400
C1050       C  0.88737136  0.62357686  0.40615746    -0.03000
C1051       C  0.89858575  0.61523502  0.52406910     0.36300
C1052       C  0.91671835  0.65608702  0.35026743     0.39900
C1053       C  0.94377296  0.67099873  0.50269715     0.39000
C1054       C  0.86772493  0.60821445  0.37340805     0.35900
C1055       C  0.83150445  0.64322406  0.49588371     0.36600
C1056       C  0.82855970  0.48721533  0.43479195     0.39900
N1057       N  0.95845909  0.68398973  0.52945823    -0.38200
N1058       N  0.89557876  0.60521144  0.55890297    -0.39800
N1059       N  0.92065209  0.66067404  0.31429446    -0.37500
N1060       N  0.85222203  0.59569224  0.34730992    -0.39900
N1061       N  0.90312888  0.51814590  0.41075469    -0.39700
N1062       N  0.82955467  0.45706713  0.41856903    -0.37300
N1063       N  0.77020612  0.60473157  0.55219332    -0.38400
N1064       N  0.83125662  0.67560250  0.50576091    -0.40000
C1065       C  0.85650051  0.93773138  0.49073194    -0.05000
C1066       C  0.85409944  0.90385885  0.46587165     0.09200
C1067       C  0.82513675  0.88864476  0.45797188    -0.02300
C1068       C  0.79922172  0.91046031  0.46919859    -0.00600
C1069       C  0.80247343  0.94820112  0.48761663    -0.04200
C1070       C  0.83026620  0.95463418  0.50794802     0.02800
C1071       C  0.88160750  0.88095229  0.45399534     0.09600
C1072       C  0.82204359  0.85092184  0.43778694     0.35500
C1073       C  0.82939703  0.95306975  0.55366560     0.39000
C1074       C  0.89135254  0.85066827  0.48051904    -0.04600
C1075       C  0.91560294  0.82655974  0.46801707     0.02600
C1076       C  0.93038409  0.83216360  0.42812973    -0.04200
C1077       C  0.92086619  0.86369184  0.40230191    -0.00400
C1078       C  0.89702734  0.88810916  0.41559406    -0.03000
C1079       C  0.87585941  0.84391581  0.52063364     0.36300
C1080       C  0.93476585  0.87116346  0.36124576     0.39900
C1081       C  0.92404118  0.79507677  0.49602376     0.39000
C1082       C  0.88846185  0.92063179  0.38921146     0.35900
C1083       C  0.88570870  0.95181243  0.50401437     0.36600
C1084       C  0.77007371  0.89326799  0.46157238     0.39900
N1085       N  0.93057979  0.77012391  0.51867998    -0.38200
N1086       N  0.86342590  0.83859245  0.55253825    -0.39800
N1087       N  0.94504489  0.87732623  0.32804974    -0.37500
N1088       N  0.88275051  0.94632667  0.36713010    -0.39900
N1089       N  0.81947061  0.82077963  0.42189808    -0.39700
N1090       N  0.74743543  0.87806730  0.45442921    -0.37300
N1091       N  0.82957732  0.94803544  0.58998849    -0.38400
N1092       N  0.90908036  0.96315434  0.51443901    -0.40000
C1093       C  0.64692629  0.94746714  0.43956056    -0.05000
C1094       C  0.64800334  0.91078755  0.45908279     0.09200
C1095       C  0.67238609  0.90190074  0.48566657    -0.02300
C1096       C  0.69609225  0.92889669  0.49125878    -0.00600
C1097       C  0.69695486  0.96421081  0.46800772    -0.04200
C1098       C  0.67088920  0.97426661  0.44428896     0.02800
C1099       C  0.62394975  0.88114380  0.44980404     0.09600
C1100       C  0.67327817  0.86458848  0.50684591     0.35500
C1101       C  0.66694845  0.01218520  0.42573630     0.39000
C1102       C  0.62354900  0.86283124  0.40979504    -0.04600
C1103       C  0.60019673  0.83691021  0.39912670     0.02600
C1104       C  0.57774799  0.82654967  0.42960216    -0.04200
C1105       C  0.57815253  0.84514600  0.46987213    -0.00400
C1106       C  0.60090960  0.87269489  0.47960652    -0.03000
C1107       C  0.64754855  0.87040430  0.37936355     0.36300
C1108       C  0.55563605  0.83561998  0.50178202     0.39900
C1109       C  0.59908256  0.82236944  0.35580826     0.39000
C1110       C  0.60066597  0.89252586  0.52027743     0.35900
C1111       C  0.62079443  0.95757092  0.41434184     0.36600
C1112       C  0.71883848  0.92081252  0.52287141     0.39900
N1113       N  0.59870437  0.81141220  0.32101498    -0.38200
N1114       N  0.66661387  0.87595278  0.35490285    -0.39800
N1115       N  0.53766978  0.82810538  0.52729713    -0.37500
N1116       N  0.60057784  0.90843472  0.55271053    -0.39900
N1117       N  0.67394716  0.83479624  0.52369635    -0.39700
N1118       N  0.73683660  0.91344379  0.54799128    -0.37300
N1119       N  0.66129533  0.04157202  0.40997742    -0.38400
N1120       N  0.59998788  0.96550020  0.39420029    -0.40000
C1121       C  0.59649506  0.41454500  0.00152612    -0.05000
C1122       C  0.60976237  0.41273501  0.96077976     0.09200
C1123       C  0.59749940  0.43541075  0.92787842    -0.02300
C1124       C  0.57163422  0.45864605  0.93534028    -0.00600
C1125       C  0.55693896  0.45836631  0.97558186    -0.04200
C1126       C  0.56969704  0.43567719  0.00837445     0.02800
C1127       C  0.63436372  0.38359459  0.95197031     0.09600
C1128       C  0.61124980  0.43435814  0.88590945     0.35500
C1129       C  0.55384713  0.43021145  0.04820311     0.39000
C1130       C  0.62781046  0.34349555  0.95516138    -0.04600
C1131       C  0.65074839  0.31574104  0.94952159     0.02600
C1132       C  0.67997687  0.32734146  0.93676648    -0.04200
C1133       C  0.68642596  0.36724382  0.93190559    -0.00400
C1134       C  0.66401706  0.39533331  0.94102455    -0.03000
C1135       C  0.59710049  0.33048753  0.96256775     0.36300
C1136       C  0.71526397  0.37924214  0.91431296     0.39900
C1137       C  0.64413104  0.27492826  0.95651301     0.39000
C1138       C  0.67129683  0.43622690  0.93788039     0.35900
C1139       C  0.60998479  0.39331193  0.03635202     0.36600
C1140       C  0.56052663  0.48185843  0.90068400     0.39900
N1141       N  0.63885142  0.24247968  0.96247716    -0.38200
N1142       N  0.57269000  0.31974727  0.96821174    -0.39800
N1143       N  0.73809716  0.38871873  0.89963521    -0.37500
N1144       N  0.67711725  0.46885031  0.93484245    -0.39900
N1145       N  0.62236443  0.43382745  0.85253758    -0.39700
N1146       N  0.55337964  0.49942403  0.87116558    -0.37300
N1147       N  0.54174816  0.42343636  0.07996720    -0.38400
N1148       N  0.62071308  0.37624878  0.06399569    -0.40000
C1149       C  0.91553270  0.39540800  0.00017276    -0.05000
C1150       C  0.89538407  0.40187933  0.96678901     0.09200
C1151       C  0.89834753  0.43572230  0.94207023    -0.02300
C1152       C  0.92171571  0.46274294  0.95024812    -0.00600
C1153       C  0.94359120  0.45494373  0.98181275    -0.04200
C1154       C  0.93976713  0.42116687  0.00708609     0.02800
C1155       C  0.87184822  0.37210424  0.95632970     0.09600
C1156       C  0.87765903  0.44211159  0.90727304     0.35500
C1157       C  0.96075625  0.41196190  0.04042305     0.39000
C1158       C  0.84188291  0.37640901  0.97092012    -0.04600
C1159       C  0.81953010  0.34939467  0.95864100     0.02600
C1160       C  0.82683359  0.31904029  0.93011989    -0.04200
C1161       C  0.85712563  0.31381509  0.91715022    -0.00400
C1162       C  0.87965426  0.33939190  0.93160258    -0.03000
C1163       C  0.83431211  0.40820626  0.99925817     0.36300
C1164       C  0.86529130  0.28155891  0.88960671     0.39900
C1165       C  0.78905695  0.35311348  0.97500300     0.35400
C1166       C  0.91104401  0.33108323  0.92262809     0.35900
C1167       C  0.91148260  0.36161109  0.02707691     0.36600
C1168       C  0.92239737  0.49810314  0.92571187     0.39900
N1169       N  0.76486402  0.35591071  0.98862483    -0.38200
N1170       N  0.82839096  0.43350292  0.02207030    -0.39800
N1171       N  0.87180086  0.25594001  0.86753755    -0.37500
N1172       N  0.93608948  0.32378675  0.91618348    -0.39900
N1173       N  0.86125371  0.44698506  0.87938363    -0.39700
N1174       N  0.92088779  0.52565271  0.90490428    -0.37300
N1175       N  0.47656586  0.40255532  0.06750462    -0.38400
N1176       N  0.90812884  0.33470652  0.04852984    -0.40000
C1177       C  0.60057058  0.55717669  0.06026035    -0.05000
C1178       C  0.60921421  0.58339325  0.02816877     0.09200
C1179       C  0.59242204  0.58486266  0.99047675    -0.02300
C1180       C  0.56674971  0.56095818  0.98529215    -0.00600
C1181       C  0.55693247  0.53568755  0.01821002    -0.04200
C1182       C  0.57428908  0.53415280  0.05594841     0.02800
C1183       C  0.63268745  0.61383444  0.03726844     0.09600
C1184       C  0.60077185  0.61257310  0.95779670     0.35500
C1185       C  0.56524892  0.51074601  0.09182011     0.39000
C1186       C  0.66269089  0.61022354  0.02270530    -0.04600
C1187       C  0.68448494  0.63892060  0.03297496     0.02600
C1188       C  0.67667860  0.67076491  0.05968072    -0.04200
C1189       C  0.64574476  0.67559931  0.07097150    -0.00400
C1190       C  0.62429909  0.64698990  0.06062052    -0.03000
C1191       C  0.67123077  0.57647733  0.99788973     0.36300
C1192       C  0.63511092  0.71087004  0.09153574     0.39900
C1193       C  0.71438252  0.63604001  0.01447352     0.39000
C1194       C  0.59333738  0.65136602  0.07479816     0.35900
C1195       C  0.61844938  0.55502368  0.09863782     0.36600
C1196       C  0.54928872  0.56499782  0.94693057     0.39900
N1197       N  0.73793098  0.63392321  0.99859020    -0.38200
N1198       N  0.67812967  0.54946294  0.97822841    -0.39800
N1199       N  0.62631944  0.73890220  0.10769406    -0.37500
N1200       N  0.56874295  0.65474054  0.08650768    -0.39900
N1201       N  0.60736943  0.63479939  0.93183545    -0.39700
N1202       N  0.53585807  0.56981911  0.91607051    -0.37300
N1203       N  0.55992712  0.49346121  0.12243161    -0.38400
N1204       N  0.63281246  0.55337193  0.12911275    -0.40000
C1205       C  0.87693434  0.65383648  0.05752935    -0.05000
C1206       C  0.86958328  0.61449958  0.04948720     0.09200
C1207       C  0.83908755  0.60257164  0.05242198    -0.02300
C1208       C  0.81653033  0.62925051  0.06503219    -0.00600
C1209       C  0.82380523  0.66871914  0.07135560    -0.04200
C1210       C  0.85413128  0.68085500  0.06776222     0.02800
C1211       C  0.89414272  0.58583665  0.03870599     0.09600
C1212       C  0.83087431  0.56283720  0.04242882     0.35500
C1213       C  0.86223514  0.72090215  0.07656064     0.39000
C1214       C  0.90093812  0.55483985  0.06632680    -0.04600
C1215       C  0.92411302  0.52819606  0.05594631     0.02600
C1216       C  0.94377285  0.53549270  0.02123175    -0.04200
C1217       C  0.93743277  0.56753742  0.99456979    -0.00400
C1218       C  0.91163929  0.59063252  0.00155357    -0.03000
C1219       C  0.88484686  0.55115629  0.10640123     0.36300
C1220       C  0.95741447  0.57777602  0.95987234     0.39900
C1221       C  0.92667998  0.49322467  0.08085695     0.39000
C1222       C  0.90329713  0.61986119  0.97063060     0.35900
C1223       C  0.90813653  0.66653113  0.05604083     0.36600
C1224       C  0.78625094  0.61559977  0.07409684     0.39900
N1225       N  0.92692017  0.46552516  0.10154481    -0.38200
N1226       N  0.87216703  0.54839941  0.13850295    -0.39800
N1227       N  0.97236699  0.58787269  0.93178572    -0.37500
N1228       N  0.89663533  0.64316587  0.94602519    -0.39900
N1229       N  0.82435758  0.53110473  0.03451999    -0.39700
N1230       N  0.76233247  0.60436253  0.08235680    -0.37300
N1231       N  0.86917864  0.75264055  0.08369187    -0.38400
N1232       N  0.93299825  0.67666801  0.05465680    -0.40000
C1233       C  0.52271065  0.62613660  0.20456275    -0.05000
C1234       C  0.49673206  0.62587736  0.17896881     0.09200
C1235       C  0.97140556  0.64801317  0.19093051    -0.02300
C1236       C  0.97272548  0.67256866  0.22666471    -0.00600
C1237       C  0.49854857  0.67257473  0.25279777    -0.04200
C1238       C  0.52350718  0.64902898  0.24165565     0.02800
C1239       C  0.49599716  0.60150526  0.13977683     0.09600
C1240       C  0.94364164  0.64444364  0.16724330     0.35500
C1241       C  0.55002678  0.64802424  0.26835807     0.39000
C1242       C  0.99274517  0.56116822  0.14340013    -0.04600
C1243       C  0.99483184  0.53750622  0.10710399     0.02600
C1244       C  0.49969933  0.55391338  0.06635251    -0.04200
C1245       C  0.50224616  0.59477023  0.06280740    -0.00400
C1246       C  0.49984217  0.61844692  0.09941196    -0.03000
C1247       C  0.98701168  0.54403212  0.18481744     0.36300
C1248       C  0.50793966  0.61306274  0.02226787     0.39900
C1249       C  0.99323268  0.49599540  0.11299107     0.39000
C1250       C  0.50115906  0.66040425  0.09575059     0.35900
C1251       C  0.54843558  0.60221219  0.19307329     0.36600
C1252       C  0.94834019  0.69970790  0.23453669     0.39900
N1253       N  0.99223896  0.46330930  0.12092951    -0.38200
N1254       N  0.98237355  0.53042782  0.21779528    -0.39800
N1255       N  0.51279857  0.62958101  0.99100782    -0.37500
N1256       N  0.50211036  0.69387811  0.09300150    -0.39900
N1257       N  0.92127519  0.64097429  0.14897001    -0.39700
N1258       N  0.92897529  0.72158405  0.24041095    -0.37300
N1259       N  0.57128092  0.64711975  0.28941557    -0.38400
N1260       N  0.56882123  0.58285397  0.18414213    -0.40000
C1261       C  0.59000548  0.38954097  0.55340554    -0.05000
C1262       C  0.61868783  0.38806713  0.57241553     0.09200
C1263       C  0.62429889  0.36002409  0.60401455    -0.02300
C1264       C  0.60183993  0.33288880  0.61560641    -0.00600
C1265       C  0.57343844  0.33322569  0.59538546    -0.04200
C1266       C  0.56746175  0.36232851  0.56484963     0.02800
C1267       C  0.64360902  0.41492365  0.55836975     0.09600
C1268       C  0.65376007  0.35813124  0.62353241     0.35500
C1269       C  0.53792289  0.36496745  0.54567051     0.39000
C1270       C  0.65353734  0.44490533  0.58534215    -0.04600
C1271       C  0.67998373  0.46620901  0.57550077     0.02600
C1272       C  0.69564294  0.45983315  0.53651039    -0.04200
C1273       C  0.68458360  0.43062902  0.50875910    -0.00400
C1274       C  0.65910000  0.40807777  0.51989436    -0.03000
C1275       C  0.63636781  0.45357782  0.62363974     0.36300
C1276       C  0.70070881  0.42116277  0.46997651     0.39900
C1277       C  0.69109332  0.49275599  0.60734766     0.39000
C1278       C  0.64928612  0.37680062  0.49225116     0.35900
C1279       C  0.58385442  0.41888467  0.52167268     0.36600
C1280       C  0.60902290  0.30284759  0.64611119     0.39900
N1281       N  0.69836891  0.51263134  0.63514438    -0.38200
N1282       N  0.62250264  0.46051050  0.65399339    -0.39800
N1283       N  0.71322579  0.41193975  0.43923509    -0.37500
N1284       N  0.64138246  0.35187714  0.47025489    -0.39900
N1285       N  0.67723969  0.35661092  0.63914129    -0.39700
N1286       N  0.61520607  0.27867500  0.66995681    -0.37300
N1287       N  0.51444298  0.36768151  0.53020212    -0.38400
N1288       N  0.57903475  0.44218819  0.49620837    -0.40000
C1289       C  0.90043276  0.39465978  0.59223708    -0.05000
C1290       C  0.89214486  0.39998170  0.54933574     0.09200
C1291       C  0.90864248  0.38000774  0.51734608    -0.02300
C1292       C  0.92983505  0.35106276  0.52841468    -0.00600
C1293       C  0.93582481  0.34314514  0.57157118    -0.04200
C1294       C  0.92246172  0.36694789  0.60311070     0.02800
C1295       C  0.86444236  0.42353210  0.53861342     0.09600
C1296       C  0.90352046  0.38893514  0.47299502     0.35500
C1297       C  0.93210574  0.36420213  0.64684744     0.39000
C1298       C  0.86223997  0.46329479  0.54941623    -0.04600
C1299       C  0.83414014  0.48273163  0.54753822     0.02600
C1300       C  0.80913213  0.46495578  0.52734817    -0.04200
C1301       C  0.81296434  0.42679129  0.51121792    -0.00400
C1302       C  0.83925381  0.40531750  0.51989450    -0.03000
C1303       C  0.88912316  0.48452736  0.56149612     0.36300
C1304       C  0.79161231  0.41075577  0.48139293     0.39900
C1305       C  0.83156854  0.52048032  0.56736247     0.39000
C1306       C  0.84024758  0.36433389  0.50908927     0.35900
C1307       C  0.88632301  0.41763200  0.62554485     0.36600
C1308       C  0.94433530  0.32817401  0.49542424     0.39900
N1309       N  0.83097477  0.55034649  0.58423713    -0.38200
N1310       N  0.91061224  0.50155421  0.57073874    -0.39800
N1311       N  0.77597855  0.39745965  0.45597824    -0.37500
N1312       N  0.84104857  0.33171134  0.50028066    -0.39900
N1313       N  0.89946451  0.39602804  0.43758428    -0.39700
N1314       N  0.95595784  0.30978294  0.46923127    -0.37300
N1315       N  0.93972930  0.36360850  0.68187922    -0.38400
N1316       N  0.87562825  0.43670489  0.65193862    -0.40000
C1317       C  0.84725671  0.07116468  0.55592245    -0.05000
C1318       C  0.85581433  0.09242485  0.51969364     0.09200
C1319       C  0.84051117  0.08624146  0.48132869    -0.02300
C1320       C  0.81631686  0.05946368  0.47937614    -0.00600
C1321       C  0.80691674  0.03837381  0.51601605    -0.04200
C1322       C  0.82223159  0.04577256  0.55484927     0.02800
C1323       C  0.87876995  0.12422320  0.52418188     0.09600
C1324       C  0.84889111  0.10882278  0.44427060     0.35500
C1325       C  0.81232899  0.02949642  0.59486646     0.39000
C1326       C  0.90934377  0.11803211  0.51363743    -0.04600
C1327       C  0.93139660  0.14551305  0.52594304     0.02600
C1328       C  0.92321331  0.17723197  0.55211388    -0.04200
C1329       C  0.89237799  0.18500824  0.55940148    -0.00400
C1330       C  0.87026777  0.15944175  0.54374475    -0.03000
C1331       C  0.91803106  0.08316607  0.49085909     0.36300
C1332       C  0.88334204  0.21956798  0.58267418     0.39900
C1333       C  0.96217221  0.14150752  0.51110069     0.39000
C1334       C  0.83872619  0.16962752  0.54705404     0.35900
C1335       C  0.86416782  0.07620956  0.59494362     0.36600
C1336       C  0.79903528  0.05721266  0.44052482     0.39900
N1337       N  0.98645630  0.13882419  0.49781166    -0.38200
N1338       N  0.92485497  0.05529843  0.47260208    -0.39800
N1339       N  0.87606611  0.24707975  0.60124490    -0.37500
N1340       N  0.81365274  0.17853298  0.54887323    -0.39900
N1341       N  0.85559117  0.12690750  0.41474724    -0.39700
N1342       N  0.78542234  0.05622954  0.40933120    -0.37300
N1343       N  0.80640740  0.01790103  0.62838698    -0.38400
N1344       N  0.87773285  0.08031686  0.62590026    -0.40000
C1345       C  0.58821944  0.10409477  0.54126793    -0.05000
C1346       C  0.61875496  0.11610638  0.54246637     0.09200
C1347       C  0.62544586  0.15469549  0.55429198    -0.02300
C1348       C  0.60212103  0.18160715  0.56075861    -0.00600
C1349       C  0.57182226  0.16902429  0.56326545    -0.04200
C1350       C  0.56513256  0.12962663  0.55498824     0.02800
C1351       C  0.64408320  0.08889922  0.53106209     0.09600
C1352       C  0.65638433  0.16670305  0.56110808     0.35500
C1353       C  0.53549651  0.11430700  0.56485428     0.39000
C1354       C  0.66376776  0.09806076  0.49705741    -0.04600
C1355       C  0.68971868  0.07553512  0.48943510     0.02600
C1356       C  0.69516867  0.04156585  0.51331835    -0.04200
C1357       C  0.67432777  0.03088892  0.54545749    -0.00400
C1358       C  0.64970276  0.05533570  0.55548656    -0.03000
C1359       C  0.65744723  0.13100865  0.46984429     0.36300
C1360       C  0.67746648  0.99465396  0.56806545     0.39900
C1361       C  0.71007064  0.08677368  0.45539117     0.39000
C1362       C  0.63069035  0.04650427  0.59190411     0.35900
C1363       C  0.58054052  0.06552445  0.52627932     0.36600
C1364       C  0.60953572  0.22253575  0.56344555     0.39900
N1365       N  0.72559706  0.09663622  0.42779189    -0.38200
N1366       N  0.65261818  0.15744096  0.44834092    -0.39800
N1367       N  0.67855704  0.96581113  0.58672971    -0.37500
N1368       N  0.61547082  0.03942143  0.62087507    -0.39900
N1369       N  0.68095240  0.17647817  0.56689906    -0.39700
N1370       N  0.61595085  0.25506983  0.56426414    -0.37300
N1371       N  0.51223936  0.10149189  0.57407731    -0.38400
N1372       N  0.57447598  0.03474985  0.51419011    -0.40000
C1373       C  0.51910947  0.34939065  0.80573576    -0.05000
C1374       C  0.49183444  0.35975471  0.82572289     0.09200
C1375       C  0.96417598  0.34780455  0.80812105    -0.02300
C1376       C  0.96388761  0.32294879  0.77250938    -0.00600
C1377       C  0.49126255  0.31289070  0.75190717    -0.04200
C1378       C  0.51887078  0.32672757  0.76859655     0.02800
C1379       C  0.49259360  0.38557067  0.86371670     0.09600
C1380       C  0.93603970  0.36280419  0.82509097     0.35500
C1381       C  0.54726514  0.31891082  0.74720992     0.39000
C1382       C  0.48788499  0.42553427  0.85865111    -0.04600
C1383       C  0.49078506  0.45071661  0.89354162     0.02600
C1384       C  0.49850228  0.43626910  0.93415791    -0.04200
C1385       C  0.00364668  0.39593075  0.93890092    -0.00400
C1386       C  0.00073619  0.37076441  0.90369618    -0.03000
C1387       C  0.48102115  0.44086794  0.81687809     0.36300
C1388       C  0.01207232  0.37950200  0.97927890     0.39900
C1389       C  0.48735728  0.49188553  0.88629423     0.39000
C1390       C  0.00629457  0.32946899  0.90838925     0.35900
C1391       C  0.54748980  0.36345030  0.82254634     0.36600
C1392       C  0.93546228  0.30674710  0.75833314     0.39900
N1393       N  0.48500972  0.52436324  0.87791661    -0.38200
N1394       N  0.47559061  0.45287825  0.78351045    -0.39800
N1395       N  0.01890926  0.36406732  0.01033430    -0.37500
N1396       N  0.01061381  0.29654122  0.91215822    -0.39900
N1397       N  0.91354507  0.37553494  0.83760924    -0.39700
N1398       N  0.91274115  0.29381315  0.74722916    -0.37300
N1399       N  0.57022136  0.31310934  0.73082815    -0.38400
N1400       N  0.57015412  0.37458915  0.83582479    -0.40000
C1401       C  0.84236053  0.11630029  0.97526605    -0.05000
C1402       C  0.86029623  0.09803123  0.94375597     0.09200
C1403       C  0.85361475  0.10413215  0.90053856    -0.02300
C1404       C  0.83160068  0.13156751  0.88892409    -0.00600
C1405       C  0.81555740  0.15272604  0.92047576    -0.04200
C1406       C  0.82031767  0.14380959  0.96377027     0.02800
C1407       C  0.88804278  0.07586209  0.95611651     0.09600
C1408       C  0.86956463  0.08241920  0.86783858     0.35500
C1409       C  0.80410347  0.16471252  0.99679309     0.39000
C1410       C  0.89051457  0.03549713  0.94889020    -0.04600
C1411       C  0.91762865  0.01574859  0.95832828     0.02600
C1412       C  0.94114667  0.03539672  0.97988940    -0.04200
C1413       C  0.93694328  0.07486763  0.99095487    -0.00400
C1414       C  0.91195374  0.09560360  0.97608662    -0.03000
C1415       C  0.86473199  0.01427472  0.93288551     0.36300
C1416       C  0.95582119  0.09284338  0.02281580     0.39900
C1417       C  0.92029342  0.97506014  0.94745160     0.39000
C1418       C  0.91073211  0.13737332  0.98218288     0.35900
C1419       C  0.84724878  0.10747338  0.01973622     0.36600
C1420       C  0.82574804  0.13791220  0.84421907     0.39900
N1421       N  0.92145009  0.94244427  0.93871253    -0.38200
N1422       N  0.84385302  0.99789782  0.92019815    -0.39800
N1423       N  0.46939800  0.10712101  0.04992056    -0.37500
N1424       N  0.90985541  0.17065853  0.98707681    -0.39900
N1425       N  0.88196120  0.06466993  0.84180368    -0.39700
N1426       N  0.82153302  0.14246851  0.80836094    -0.37300
N1427       N  0.79122208  0.18143683  0.02316063    -0.38400
N1428       N  0.85129038  0.10049728  0.05517665    -0.40000
C1429       C  0.65721645  0.10619899  0.95067898    -0.05000
C1430       C  0.62821120  0.10993163  0.93315363     0.09200
C1431       C  0.62254012  0.13910364  0.90302187    -0.02300
C1432       C  0.64525255  0.16582674  0.89204523    -0.00600
C1433       C  0.67428180  0.16257549  0.90994952    -0.04200
C1434       C  0.68036638  0.13219227  0.93871475     0.02800
C1435       C  0.60286697  0.08520484  0.94885040     0.09600
C1436       C  0.59315785  0.14188492  0.88355344     0.35500
C1437       C  0.71049379  0.12713003  0.95533095     0.39000
C1438       C  0.58627751  0.09709649  0.98481558    -0.04600
C1439       C  0.56171241  0.07476640  0.99924041     0.02600
C1440       C  0.55314631  0.04054029  0.97743655    -0.04200
C1441       C  0.56971574  0.02891162  0.94101519    -0.00400
C1442       C  0.59469300  0.05105846  0.92707278    -0.03000
C1443       C  0.59418226  0.13292453  0.00647035     0.36300
C1444       C  0.56102432  0.99494020  0.91694898     0.39900
C1445       C  0.54508562  0.08762155  0.03655766     0.39000
C1446       C  0.61182126  0.03919960  0.88985210     0.35900
C1447       C  0.66298908  0.07579152  0.98132790     0.36600
C1448       C  0.63807090  0.19807104  0.86427412     0.39900
N1449       N  0.53255460  0.09879644  0.06649962    -0.38200
N1450       N  0.60044973  0.16156860  0.02356835    -0.39800
N1451       N  0.55496033  0.96829050  0.89625948    -0.37500
N1452       N  0.62555484  0.02986512  0.86016512    -0.39900
N1453       N  0.56995041  0.14410298  0.86731525    -0.39700
N1454       N  0.63229207  0.22392210  0.84240299    -0.37300
N1455       N  0.73452677  0.12271895  0.96849433    -0.38400
N1456       N  0.66738108  0.05149036  0.00581514    -0.40000
C1457       C  0.49919135  0.10766357  0.88458574    -0.05000
C1458       C  0.49413937  0.08493902  0.84811914     0.09200
C1459       C  0.98968174  0.04471339  0.85265738    -0.02300
C1460       C  0.99035454  0.02730368  0.89337640    -0.00600
C1461       C  0.49616461  0.04971304  0.93047933    -0.04200
C1462       C  0.50050037  0.09044106  0.92527644     0.02800
C1463       C  0.49191283  0.10429468  0.80536824     0.09600
C1464       C  0.98383190  0.02127074  0.81523641     0.35500
C1465       C  0.50541315  0.11632292  0.96065634     0.39000
C1466       C  0.51595823  0.10255998  0.77585890    -0.04600
C1467       C  0.51542775  0.12531223  0.73838739     0.02600
C1468       C  0.49083915  0.15076645  0.73028570    -0.04200
C1469       C  0.96533485  0.14884581  0.75809946    -0.00400
C1470       C  0.96642849  0.12688650  0.79582578    -0.03000
C1471       C  0.54208734  0.07892332  0.78532593     0.36300
C1472       C  0.93767172  0.16963244  0.74899841     0.39900
C1473       C  0.54044966  0.12221138  0.70863906     0.39000
C1474       C  0.94224992  0.13030136  0.82688435     0.35900
C1475       C  0.50232398  0.14950625  0.88012696     0.36600
C1476       C  0.98489580  0.98599596  0.89629551     0.39900
N1477       N  0.56039603  0.11950253  0.68490876    -0.38200
N1478       N  0.56292991  0.06011758  0.79299479    -0.39800
N1479       N  0.91548412  0.18598828  0.74205253    -0.37500
N1480       N  0.92359110  0.13432122  0.85234160    -0.39900
N1481       N  0.97926940  0.00256069  0.78537219    -0.39700
N1482       N  0.98025936  0.95296523  0.89642736    -0.37300
N1483       N  0.50924485  0.14024704  0.98592639    -0.38400
N1484       N  0.50461127  0.18279826  0.87643420    -0.40000
C1485       C  0.85748768  0.88442642  0.10280990    -0.05000
C1486       C  0.86093553  0.90002114  0.06178268     0.09200
C1487       C  0.84181747  0.88716689  0.02897685    -0.02300
C1488       C  0.82020932  0.85765323  0.03667745    -0.00600
C1489       C  0.81811570  0.83996587  0.07717279    -0.04200
C1490       C  0.83683268  0.85405321  0.11035912     0.02800
C1491       C  0.88819347  0.92437244  0.05192344     0.09600
C1492       C  0.84554519  0.90294455  0.98665429     0.35500
C1493       C  0.83599062  0.83675759  0.15237423     0.39000
C1494       C  0.91492230  0.90567236  0.03930980    -0.04600
C1495       C  0.94188961  0.92690526  0.03383688     0.02600
C1496       C  0.94256023  0.96793221  0.03994066    -0.04200
C1497       C  0.91562503  0.98617422  0.05479633    -0.00400
C1498       C  0.88864354  0.96454996  0.06009377    -0.03000
C1499       C  0.91487235  0.86372355  0.03382237     0.36300
C1500       C  0.91630972  0.02554765  0.07097365     0.39900
C1501       C  0.96913603  0.90468314  0.02728007     0.39000
C1502       C  0.86156534  0.98324840  0.07604958     0.35900
C1503       C  0.87612448  0.89870249  0.13719913     0.36600
C1504       C  0.80202477  0.84351386  0.00183841     0.39900
N1505       N  0.98941696  0.88370924  0.02540222    -0.38200
N1506       N  0.91473322  0.83032963  0.02974701    -0.39800
N1507       N  0.91577162  0.05617414  0.08612587    -0.37500
N1508       N  0.84002723  0.99813236  0.08907127    -0.39900
N1509       N  0.84858836  0.91519541  0.95272160    -0.39700
N1510       N  0.78778008  0.83224779  0.97372415    -0.37300
N1511       N  0.83622333  0.82312229  0.18593264    -0.38400
N1512       N  0.89056789  0.90999134  0.16508739    -0.40000
C1513       C  0.62698156  0.86757870  0.09863827    -0.05000
C1514       C  0.62769906  0.88752329  0.05971862     0.09200
C1515       C  0.65197037  0.88093967  0.03139476    -0.02300
C1516       C  0.67486605  0.85383444  0.04150291    -0.00600
C1517       C  0.67403177  0.83336837  0.08063895    -0.04200
C1518       C  0.64992214  0.84121173  0.10943017     0.02800
C1519       C  0.60328285  0.91635243  0.04940546     0.09600
C1520       C  0.65362171  0.90281781  0.99214804     0.35500
C1521       C  0.64803742  0.82219453  0.15056396     0.39000
C1522       C  0.60420492  0.95412240  0.06642240    -0.04600
C1523       C  0.58120122  0.98135095  0.05724971     0.02600
C1524       C  0.55525435  0.96999029  0.03359152    -0.04200
C1525       C  0.55645678  0.93321629  0.01316529    -0.00400
C1526       C  0.57965623  0.90631644  0.02194051    -0.03000
C1527       C  0.62919581  0.96496241  0.09359091     0.36300
C1528       C  0.53542899  0.92392102  0.97986044     0.39900
C1529       C  0.58668144  0.02092555  0.07022622     0.39000
C1530       C  0.57915491  0.86797679  0.00279320     0.35900
C1531       C  0.60253980  0.87404020  0.12826726     0.36600
C1532       C  0.69973197  0.84836687  0.01204565     0.39900
N1533       N  0.59403052  0.05138375  0.08186375    -0.38200
N1534       N  0.64901730  0.97345037  0.11544345    -0.39800
N1535       N  0.51941506  0.91532046  0.95260467    -0.37500
N1536       N  0.57876583  0.83736838  0.98757871    -0.39900
N1537       N  0.65486667  0.92048591  0.96097133    -0.39700
N1538       N  0.71948082  0.84422123  0.98827729    -0.37300
N1539       N  0.64647424  0.80754251  0.18355601    -0.38400
N1540       N  0.58369364  0.87806446  0.15329765    -0.40000
C1541       C  0.98673104  0.91257758  0.13930722    -0.05000
C1542       C  0.51434538  0.91457848  0.16119838     0.09200
C1543       C  0.53318975  0.94726894  0.15404944    -0.02300
C1544       C  0.52529407  0.97457934  0.12258173    -0.00600
C1545       C  0.50109071  0.96663785  0.09506718    -0.04200
C1546       C  0.97821442  0.94376688  0.11374623     0.02800
C1547       C  0.51961165  0.88665343  0.19681609     0.09600
C1548       C  0.55977434  0.95393530  0.17955640     0.35500
C1549       C  0.95271183  0.96433269  0.13159220     0.39000
C1550       C  0.52267226  0.84658528  0.18789669    -0.04600
C1551       C  0.52171397  0.81933367  0.22112025     0.02600
C1552       C  0.51801475  0.83186108  0.26355938    -0.04200
C1553       C  0.01709584  0.87184407  0.27291793    -0.00400
C1554       C  0.01688446  0.89915964  0.23961252    -0.03000
C1555       C  0.52545702  0.83321328  0.14422854     0.36300
C1556       C  0.01528461  0.88478348  0.31676176     0.39900
C1557       C  0.52462518  0.77831953  0.21139714     0.39000
C1558       C  0.01156657  0.93976708  0.24935945     0.35900
C1559       C  0.96456679  0.88290303  0.14925660     0.36600
C1560       C  0.53399428  0.01451714  0.12894036     0.39900
N1561       N  0.52720498  0.74580770  0.20283995    -0.38200
N1562       N  0.52761102  0.82252047  0.10945675    -0.39800
N1563       N  0.01392719  0.89512059  0.35173506    -0.37500
N1564       N  0.00731600  0.97218300  0.25702012    -0.39900
N1565       N  0.58110306  0.95938771  0.19967680    -0.39700
N1566       N  0.54007560  0.04635031  0.13694718    -0.37300
N1567       N  0.93299226  0.98015629  0.14850121    -0.38400
N1568       N  0.94722705  0.85881445  0.15716990    -0.40000
loop_ 
_geom_bond_atom_site_label_1 
_geom_bond_atom_site_label_2 
_geom_bond_distance 
_geom_bond_site_symmetry_2 
_ccdc_geom_bond_type 
C1            C2   1.450   1_655  A
C1          C790   1.448       .  A
C1          C761   1.539   1_655  S
C2            C3   1.427   1_564  A
C2          C740   1.533       .  S
C3          C788   1.422   1_455  A
C3          C656   1.496       .  S
C4            C5   1.424       .  A
C4          C787   1.422       .  A
C4         C1461   1.528       .  S
C5            C6   1.434   1_546  A
C5          C628   1.508       .  S
C6          C785   1.448       .  A
C6          C712   1.524       .  S
O7          Cr25   1.980       .  S
O7          C799   1.258       .  A
O8          Cr25   2.001       .  S
O8            C9   1.264       .  A
C9          C509   1.496       .  S
C9           O10   1.263       .  A
O10        Cr810   1.995       .  S
O11         Cr26   2.018       .  S
O11          C12   1.270       .  A
C12         C481   1.495       .  S
C12          O13   1.265       .  A
O13         Cr27   1.986       .  S
O14         Cr27   1.990       .  S
O14          C15   1.258   1_455  A
C15         C593   1.485       .  S
C15         O791   1.258       .  A
O16         Cr25   2.009       .  S
O16         C808   1.268       .  A
O17         Cr25   1.975       .  S
O17          C18   1.261       .  A
C18         C544   1.486       .  S
C18          O19   1.266       .  A
O19        Cr810   2.014       .  S
O20         Cr26   2.005       .  S
O20          C21   1.263       .  A
C21         C565   1.488       .  S
C21          O22   1.258       .  A
O22         Cr27   1.982       .  S
O23         Cr27   1.990       .  S
O23          C24   1.265   1_455  A
C24         C684   1.517       .  S
C24         O800   1.268       .  A
Cr25        O812   1.772       .  S
Cr26        O794   1.995   1_455  S
Cr26        O803   2.014   1_455  S
Cr26         O28   1.780   1_455  S
Cr27         O28   1.777   1_455  S
O28        Cr809   1.772       .  S
C29          C34   1.429   1_655  A
C29         C814   1.426       .  A
C29         C600   1.501       .  S
C30          C31   1.419   1_556  A
C30         C813   1.426       .  A
C30         C369   1.516       .  S
C31         C816   1.426       .  A
C31         C432   1.511       .  S
C32          C33   1.427       .  A
C32         C815   1.426   1_455  A
C32         C460   1.501   1_455  S
C33          C34   1.428   1_554  A
C33         C397   1.518       .  S
C34         C341   1.515       .  S
O35         Cr53   1.975       .  S
O35         C827   1.257       .  A
O36         Cr53   2.005       .  S
O36          C37   1.267       .  A
C37         C264   1.501       .  S
C37          O38   1.266       .  A
O38        Cr838   1.996       .  S
O39         Cr54   2.030       .  S
O39          C40   1.271       .  A
C40         C229   1.487       .  S
C40          O41   1.259       .  A
O41         Cr55   1.965       .  S
O42         Cr55   1.995       .  S
O42          C43   1.260       .  A
C43         C453   1.482   1_455  S
C43         O819   1.257   1_455  A
O44         Cr53   2.016       .  S
O44         C836   1.268       .  A
O45         Cr53   1.971       .  S
O45          C46   1.259       .  A
C46         C292   1.510       .  S
C46          O47   1.268       .  A
O47        Cr838   2.015       .  S
O48         Cr54   2.011       .  S
O48          C49   1.266       .  A
C49         C320   1.505       .  S
C49          O50   1.260       .  A
O50         Cr55   1.995       .  S
O51         Cr55   1.973       .  S
O51          C52   1.258       .  A
C52         C768   1.477       .  S
C52         O828   1.268   1_455  A
Cr53        O840   1.768       .  S
Cr54        O822   1.996   1_455  S
Cr54        O831   2.015   1_455  S
Cr54         O56   1.772       .  S
Cr55         O56   1.767       .  S
O56        Cr837   1.768   1_455  S
C57          C58   1.437       .  A
C57          C62   1.439       .  A
C57         C180   1.535       .  S
C58          C59   1.415   1_565  A
C58         C313   1.520       .  S
C59          C60   1.420       .  A
C59         C572   1.503       .  S
C60          C61   1.424       .  A
C60         C208   1.494       .  S
C61          C62   1.436   1_545  A
C61         C537   1.519       .  S
C62         C285   1.544       .  S
O63         Cr81   1.995       .  S
O63          C71   1.263       .  A
O64         Cr81   1.969       .  S
O64          C65   1.257       .  A
C65         C733   1.508       .  S
C65          O66   1.269       .  A
O66         Cr82   2.029       .  S
O67         Cr82   2.009       .  S
O67          C68   1.263       .  A
C68         C705   1.500       .  S
C68          O69   1.257       .  A
O69         Cr83   1.987       .  S
O70         Cr83   1.979       .  S
O70          C71   1.260       .  A
C71         C173   1.481       .  S
O72         Cr81   1.993       .  S
O72          C80   1.263       .  A
O73         Cr81   1.990       .  S
O73          C74   1.264       .  A
C74         C404   1.512       .  S
C74          O75   1.266       .  A
O75         Cr82   2.002       .  S
O76         Cr82   2.041       .  S
O76          C77   1.276       .  A
C77         C425   1.484       .  S
C77          O78   1.259       .  A
O78         Cr83   1.964       .  S
O79         Cr83   1.990       .  S
O79          C80   1.260       .  A
C80         C145   1.513       .  S
Cr81         O84   1.762       .  S
Cr82         O84   1.779       .  S
Cr83         O84   1.766       .  S
C85          C86   1.428       .  A
C85          C90   1.427       .  A
C85         C117   1.501       .  S
C86          C87   1.425       .  A
C86         C516   1.519       .  S
C87          C88   1.430       .  A
C87         C257   1.514       .  S
C88          C89   1.429       .  A
C88         C152   1.512       .  S
C89          C90   1.427       .  A
C89         C236   1.510       .  S
C90         C488   1.518       .  S
O91        Cr109   1.994       .  S
O91          C99   1.266       .  A
O92        Cr109   1.968       .  S
O92          C93   1.259       .  A
C93         C376   1.484       .  S
C93          O94   1.268       .  A
O94        Cr110   2.015       .  S
O95        Cr110   2.008       .  S
O95          C96   1.262       .  A
C96         C348   1.483       .  S
C96          O97   1.255       .  A
O97        Cr111   1.978       .  S
O98        Cr111   1.978       .  S
O98          C99   1.262       .  A
C99         C124   1.490       .  S
O100       Cr109   1.980       .  S
O100        C108   1.259       .  A
O101       Cr109   1.992       .  S
O101        C102   1.262       .  A
C102        C621   1.494       .  S
C102        O103   1.263       .  A
O103       Cr110   1.993       .  S
O104       Cr110   2.021       .  S
O104        C105   1.273       .  A
C105        C649   1.481       .  S
C105        O106   1.262       .  A
O106       Cr111   1.964       .  S
O107       Cr111   1.992       .  S
O107        C108   1.258       .  A
C108        C201   1.479       .  S
Cr109       O112   1.765       .  S
Cr110       O112   1.770       .  S
Cr111       O112   1.769       .  S
C113        C114   1.402       .  A
C113        C118   1.407       .  A
C113        C131   1.452       .  S
C114        C115   1.407       .  A
C114        C119   1.486       .  S
C115        C116   1.409       .  A
C115        C120   1.453       .  S
C116        C117   1.418       .  A
C116        C132   1.445       .  S
C117        C118   1.420       .  A
C118        C121   1.447       .  S
C119        C122   1.408       .  A
C119        C126   1.404       .  A
C120        N137   1.157       .  T
C121        N139   1.156       .  T
C122        C123   1.410       .  A
C122        C127   1.450       .  S
C123        C124   1.420       .  A
C123        C129   1.451       .  S
C124        C125   1.420       .  A
C125        C126   1.402       .  A
C125        C128   1.454       .  S
C126        C130   1.449       .  S
C127        N134   1.157       .  T
C128        N135   1.158       .  T
C129        N133   1.158       .  T
C130        N136   1.156       .  T
C131        N140   1.157       .  T
C132        N138   1.157       .  T
C141        C142   1.407       .  A
C141        C146   1.410       .  A
C141        C159   1.455       .  S
C142        C143   1.412       .  A
C142        C147   1.503       .  S
C143        C144   1.416       .  A
C143        C148   1.452       .  S
C144        C145   1.424       .  A
C144        C160   1.451       .  S
C145        C146   1.432       .  A
C146        C149   1.454       .  S
C147        C150   1.410       .  A
C147        C154   1.409       .  A
C148        N165   1.157       .  T
C149        N167   1.158       .  T
C150        C151   1.412       .  A
C150        C155   1.455       .  S
C151        C152   1.421       .  A
C151        C157   1.444       .  S
C152        C153   1.419       .  A
C153        C154   1.411       .  A
C153        C156   1.449       .  S
C154        C158   1.451       .  S
C155        N162   1.157       .  T
C156        N163   1.157       .  T
C157        N161   1.157       .  T
C158        N164   1.157       .  T
C159        N168   1.157       .  T
C160        N166   1.158       .  T
C169        C170   1.408       .  A
C169        C174   1.405       .  A
C169        C187   1.449       .  S
C170        C171   1.411       .  A
C170        C175   1.489       .  S
C171        C172   1.410       .  A
C171        C176   1.451       .  S
C172        C173   1.414       .  A
C172        C188   1.451       .  S
C173        C174   1.415       .  A
C174        C177   1.453       .  S
C175        C178   1.410       .  A
C175        C182   1.408       .  A
C176        N193   1.157       .  T
C177        N195   1.157       .  T
C178        C179   1.410       .  A
C178        C183   1.449       .  S
C179        C180   1.420       .  A
C179        C185   1.446       .  S
C180        C181   1.408       .  A
C181        C182   1.408       .  A
C181        C184   1.441   1_565  S
C182        C186   1.449       .  S
C183        N190   1.157       .  T
C184        N191   1.157       .  T
C185        N189   1.157       .  T
C186        N192   1.157       .  T
C187        N196   1.156       .  T
C188        N194   1.157       .  T
C197        C198   1.410       .  A
C197        C202   1.405       .  A
C197        C215   1.449       .  S
C198        C199   1.408       .  A
C198        C203   1.488       .  S
C199        C200   1.408       .  A
C199        C204   1.452       .  S
C200        C201   1.418       .  A
C200        C216   1.450       .  S
C201        C202   1.412       .  A
C202        C205   1.452       .  S
C203        C206   1.406       .  A
C203        C210   1.407       .  A
C204        N221   1.158       .  T
C205        N223   1.157       .  T
C206        C207   1.405       .  A
C206        C211   1.452       .  S
C207        C208   1.416       .  A
C207        C213   1.450       .  S
C208        C209   1.415       .  A
C209        C210   1.408       .  A
C209        C212   1.445       .  S
C210        C214   1.452       .  S
C211        N218   1.157       .  T
C212        N219   1.157       .  T
C213        N217   1.156   1_545  T
C214        N220   1.157       .  T
C215        N224   1.156       .  T
C216        N222   1.157       .  T
C225        C226   1.414       .  A
C225        C230   1.416       .  A
C225        C243   1.450       .  S
C226        C227   1.412       .  A
C226        C231   1.505       .  S
C227        C228   1.406       .  A
C227        C232   1.447       .  S
C228        C229   1.413       .  A
C228        C244   1.454       .  S
C229        C230   1.414       .  A
C230        C233   1.449       .  S
C231        C234   1.410       .  A
C231        C238   1.409       .  A
C232        N249   1.155       .  T
C233        N251   1.157       .  T
C234        C235   1.415       .  A
C234        C239   1.452       .  S
C235        C236   1.419       .  A
C235        C241   1.445       .  S
C236        C237   1.418       .  A
C237        C238   1.412       .  A
C237        C240   1.449       .  S
C238        C242   1.452       .  S
C239        N246   1.157       .  T
C240        N247   1.157       .  T
C241        N245   1.157       .  T
C242        N248   1.157       .  T
C243        N252   1.157       .  T
C244        N250   1.158       .  T
C253        C254   1.408       .  A
C253        C258   1.410       .  A
C253        C271   1.452       .  S
C254        C255   1.411       .  A
C254        C259   1.504       .  S
C255        C256   1.415       .  A
C255        C260   1.452       .  S
C256        C257   1.420       .  A
C256        C272   1.446       .  S
C257        C258   1.420       .  A
C258        C261   1.447       .  S
C259        C262   1.414       .  A
C259        C266   1.409       .  A
C260        N277   1.157       .  T
C261        N279   1.156       .  T
C262        C263   1.417       .  A
C262        C267   1.451       .  S
C263        C264   1.419       .  A
C263        C269   1.450       .  S
C264        C265   1.420       .  A
C265        C266   1.409       .  A
C265        C268   1.448       .  S
C266        C270   1.453       .  S
C267        N274   1.157       .  T
C268        N275   1.156       .  T
C269        N273   1.157       .  T
C270        N276   1.157       .  T
C271        N280   1.157       .  T
C272        N278   1.157       .  T
C281        C282   1.408       .  A
C281        C286   1.407       .  A
C281        C299   1.447       .  S
C282        C283   1.411       .  A
C282        C287   1.499       .  S
C283        C284   1.417       .  A
C283        C288   1.452       .  S
C284        C285   1.430       .  A
C284        C300   1.443       .  S
C285        C286   1.410       .  A
C286        C289   1.441       .  S
C287        C290   1.409       .  A
C287        C294   1.407       .  A
C288        N305   1.157       .  T
C289        N307   1.157       .  T
C290        C291   1.413       .  A
C290        C295   1.453       .  S
C291        C292   1.426       .  A
C291        C297   1.451       .  S
C292        C293   1.425       .  A
C293        C294   1.413       .  A
C293        C296   1.452       .  S
C294        C298   1.449       .  S
C295        N302   1.157       .  T
C296        N303   1.157       .  T
C297        N301   1.157       .  T
C298        N304   1.157       .  T
C299        N308   1.157       .  T
C300        N306   1.155       .  T
C309        C310   1.408       .  A
C309        C314   1.415       .  A
C309        C327   1.453       .  S
C310        C311   1.407       .  A
C310        C315   1.506       .  S
C311        C312   1.415       .  A
C311        C316   1.450       .  S
C312        C313   1.422       .  A
C312        C328   1.450       .  S
C313        C314   1.425       .  A
C314        C317   1.444   1_565  S
C315        C318   1.407       .  A
C315        C322   1.413       .  A
C316        N333   1.157       .  T
C317        N335   1.157       .  T
C318        C319   1.409       .  A
C318        C323   1.451       .  S
C319        C320   1.424       .  A
C319        C325   1.453       .  S
C320        C321   1.419       .  A
C321        C322   1.419       .  A
C321        C324   1.450       .  S
C322        C326   1.450       .  S
C323        N330   1.156       .  T
C324        N331   1.157       .  T
C325        N329   1.158       .  T
C326        N332   1.158       .  T
C327        N336   1.157       .  T
C328        N334   1.157       .  T
C337        C338   1.409   1_554  A
C337        C342   1.410       .  A
C337        C355   1.453       .  S
C338        C339   1.412       .  A
C338        C343   1.508       .  S
C339        C340   1.418       .  A
C339        C344   1.452       .  S
C340        C341   1.421       .  A
C340        C356   1.445       .  S
C341        C342   1.418   1_556  A
C342        C345   1.446       .  S
C343        C346   1.415       .  A
C343        C350   1.416       .  A
C344        N361   1.157       .  T
C345        N363   1.156       .  T
C346        C347   1.408       .  A
C346        C351   1.451       .  S
C347        C348   1.412       .  A
C347        C353   1.453       .  S
C348        C349   1.412       .  A
C349        C350   1.416       .  A
C349        C352   1.451       .  S
C350        C354   1.448       .  S
C351        N358   1.157       .  T
C352        N359   1.157       .  T
C353        N357   1.157       .  T
C354        N360   1.157       .  T
C355        N364   1.157       .  T
C356        N362   1.157       .  T
C365        C366   1.403   1_554  A
C365        C370   1.411       .  A
C365        C383   1.452       .  S
C366        C367   1.409       .  A
C366        C371   1.500       .  S
C367        C368   1.417       .  A
C367        C372   1.452       .  S
C368        C369   1.421       .  A
C368        C384   1.444       .  S
C369        C370   1.421   1_556  A
C370        C373   1.444       .  S
C371        C374   1.412       .  A
C371        C378   1.410       .  A
C372        N389   1.157       .  T
C373       N1175   1.155       .  T
C374        C375   1.414       .  A
C374        C379   1.449       .  S
C375        C376   1.413       .  A
C375        C381   1.449       .  S
C376        C377   1.414       .  A
C377        C378   1.409       .  A
C377        C380   1.452       .  S
C378        C382   1.448       .  S
C379        N386   1.157   1_556  T
C380        N387   1.157       .  T
C381        N385   1.157       .  T
C382        N388   1.156       .  T
C383        N392   1.157       .  T
C384        N390   1.157       .  T
N391       C1157   1.155       .  T
C393        C394   1.408       .  A
C393        C398   1.416       .  A
C393        C411   1.452       .  S
C394        C395   1.407   1_554  A
C394        C399   1.505       .  S
C395        C396   1.415       .  A
C395        C400   1.451       .  S
C396        C397   1.421   1_556  A
C396        C412   1.447       .  S
C397        C398   1.422       .  A
C398        C401   1.444       .  S
C399        C402   1.411       .  A
C399        C406   1.406       .  A
C400        N417   1.157       .  T
C401        N419   1.157       .  T
C402        C403   1.420       .  A
C402        C407   1.448   1_554  S
C403        C404   1.422       .  A
C403        C409   1.448       .  S
C404        C405   1.425       .  A
C405        C406   1.408       .  A
C405        C408   1.453       .  S
C406        C410   1.449       .  S
C407        N414   1.157       .  T
C408        N415   1.157       .  T
C409        N413   1.157   1_554  T
C410        N416   1.155       .  T
C411        N420   1.157       .  T
C412        N418   1.156       .  T
C421        C422   1.416       .  A
C421        C426   1.411       .  A
C421        C439   1.452       .  S
C422        C423   1.416       .  A
C422        C427   1.508       .  S
C423        C424   1.414       .  A
C423        C428   1.450       .  S
C424        C425   1.411       .  A
C424        C440   1.449       .  S
C425        C426   1.412       .  A
C426        C429   1.452       .  S
C427        C430   1.413       .  A
C427        C434   1.409       .  A
C428        N445   1.157       .  T
C429        N447   1.157       .  T
C430        C431   1.415       .  A
C430        C435   1.451       .  S
C431        C432   1.416       .  A
C431        C437   1.444       .  S
C432        C433   1.418   1_554  A
C433        C434   1.411   1_556  A
C433        C436   1.446       .  S
C434        C438   1.453   1_554  S
C435        N442   1.157       .  T
C436        N443   1.156       .  T
C437        N441   1.157       .  T
C438        N444   1.157       .  T
C439        N448   1.157       .  T
C440        N446   1.157       .  T
C449        C450   1.411   1_455  A
C449        C454   1.408       .  A
C449        C467   1.452       .  S
C450       C1235   1.408       .  A
C450        C455   1.491       .  S
C451        C452   1.407       .  A
C451       C1234   1.408       .  A
C451        C456   1.450       .  S
C452       C1237   1.415       .  A
C452        C468   1.451       .  S
C453        C454   1.415   1_655  A
C453       C1236   1.415       .  A
C454        C457   1.452       .  S
C455        C462   1.409       .  A
C455       C1242   1.402       .  A
C456        N473   1.157       .  T
C457        N475   1.157       .  T
C458        C459   1.404       .  A
C458       C1239   1.402       .  A
C458        C463   1.453       .  S
C459       C1244   1.418       .  A
C459        C465   1.444       .  S
C460        C461   1.417   1_655  A
C460       C1243   1.418       .  A
C461        C462   1.414   1_455  A
C461        C464   1.445       .  S
C462        C466   1.451   1_655  S
C463        N470   1.157       .  T
C464        N471   1.157   1_554  T
C465        N469   1.155       .  T
C466        N472   1.157       .  T
C467        N476   1.157       .  T
C468        N474   1.157       .  T
C477        C478   1.411       .  A
C477        C482   1.415       .  A
C477        C495   1.451       .  S
C478        C479   1.412       .  A
C478        C483   1.505       .  S
C479        C480   1.412       .  A
C479        C484   1.450       .  S
C480        C481   1.416       .  A
C480        C496   1.451       .  S
C481        C482   1.418       .  A
C482        C485   1.450       .  S
C483        C486   1.408       .  A
C483        C490   1.408       .  A
C484        N501   1.156       .  T
C485        N503   1.157       .  T
C486        C487   1.416       .  A
C486        C491   1.452       .  S
C487        C488   1.423       .  A
C487        C493   1.444       .  S
C488        C489   1.420       .  A
C489        C490   1.414       .  A
C489        C492   1.447       .  S
C490        C494   1.452       .  S
C491        N498   1.157       .  T
C492        N499   1.156       .  T
C493        N497   1.157       .  T
C494        N500   1.157       .  T
C495        N504   1.157       .  T
C496        N502   1.157       .  T
C505        C506   1.415       .  A
C505        C510   1.412       .  A
C505        C523   1.451       .  S
C506        C507   1.418       .  A
C506        C511   1.515       .  S
C507        C508   1.418       .  A
C507        C512   1.450       .  S
C508        C509   1.414       .  A
C508        C524   1.450       .  S
C509        C510   1.414       .  A
C510        C513   1.448       .  S
C511        C514   1.414       .  A
C511        C518   1.413       .  A
C512        N529   1.157       .  T
C513        N531   1.156       .  T
C514        C515   1.418       .  A
C514        C519   1.451       .  S
C515        C516   1.420       .  A
C515        C521   1.445       .  S
C516        C517   1.418       .  A
C517        C518   1.411       .  A
C517        C520   1.447       .  S
C518        C522   1.452       .  S
C519        N526   1.157       .  T
C520        N527   1.156       .  T
C521        N525   1.157       .  T
C522        N528   1.157       .  T
C523        N532   1.157       .  T
C524        N530   1.157       .  T
C533        C534   1.407       .  A
C533        C538   1.413       .  A
C533        C551   1.454       .  S
C534        C535   1.405       .  A
C534        C539   1.502       .  S
C535        C536   1.416       .  A
C535        C540   1.450       .  S
C536        C537   1.424       .  A
C536        C552   1.450       .  S
C537        C538   1.425       .  A
C538        C541   1.446       .  S
C539        C542   1.411       .  A
C539        C546   1.410       .  A
C540        N557   1.157       .  T
C541        N559   1.158       .  T
C542        C543   1.416       .  A
C542        C547   1.449       .  S
C543        C544   1.413       .  A
C543        C549   1.447       .  S
C544        C545   1.412       .  A
C545        C546   1.408       .  A
C545        C548   1.452       .  S
C546        C550   1.446       .  S
C547        N554   1.157       .  T
C548        N555   1.157       .  T
C549        N553   1.157       .  T
C550        N556   1.156       .  T
C551        N560   1.157       .  T
C552        N558   1.157       .  T
C561        C562   1.417       .  A
C561        C566   1.416       .  A
C561        C579   1.450       .  S
C562        C563   1.411       .  A
C562        C567   1.505       .  S
C563        C564   1.404       .  A
C563        C568   1.450       .  S
C564        C565   1.414       .  A
C564        C580   1.450       .  S
C565        C566   1.413       .  A
C566        C569   1.448       .  S
C567        C570   1.413       .  A
C567        C574   1.414       .  A
C568        N585   1.156       .  T
C569        N587   1.157       .  T
C570        C571   1.408       .  A
C570        C575   1.453       .  S
C571        C572   1.415       .  A
C571        C577   1.450       .  S
C572        C573   1.415       .  A
C573        C574   1.414       .  A
C573        C576   1.446   1_545  S
C574        C578   1.451       .  S
C575        N582   1.157       .  T
C576        N583   1.157       .  T
C577        N581   1.156       .  T
C578        N584   1.157       .  T
C579        N588   1.157       .  T
C580        N586   1.156       .  T
C589        C590   1.406   1_455  A
C589        C594   1.404       .  A
C589        C607   1.452       .  S
C590       C1375   1.411       .  A
C590        C595   1.489       .  S
C591        C592   1.409       .  A
C591       C1374   1.411       .  A
C591        C596   1.450       .  S
C592       C1377   1.416       .  A
C592        C608   1.451       .  S
C593        C594   1.418   1_655  A
C593       C1376   1.416       .  A
C594        C597   1.450       .  S
C595        C598   1.403       .  A
C595       C1386   1.409   1_655  A
C596        N613   1.157       .  T
C597        N615   1.156       .  T
C598        C599   1.404       .  A
C598        C603   1.453       .  S
C599        C600   1.418       .  A
C599        C605   1.446       .  S
C600       C1385   1.417   1_655  A
C601        C602   1.412       .  A
C601       C1384   1.417       .  A
C601        C604   1.445       .  S
C602       C1379   1.409       .  A
C602        C606   1.452       .  S
C603        N610   1.157       .  T
C604        N611   1.157   1_556  T
C605        N609   1.155       .  T
C606        N612   1.157       .  T
C607        N616   1.156       .  T
C608        N614   1.158       .  T
C617        C618   1.414       .  A
C617        C622   1.413       .  A
C617        C635   1.451   1_556  S
C618        C619   1.411       .  A
C618        C623   1.504       .  S
C619        C620   1.411       .  A
C619        C624   1.452       .  S
C620        C621   1.419       .  A
C620        C636   1.450       .  S
C621        C622   1.415       .  A
C622        C625   1.450       .  S
C623        C626   1.413       .  A
C623        C630   1.410       .  A
C624        N641   1.158       .  T
C625        N643   1.157   1_556  T
C626        C627   1.417       .  A
C626        C631   1.449       .  S
C627        C628   1.419       .  A
C627        C633   1.447   1_545  S
C628        C629   1.415       .  A
C629        C630   1.404       .  A
C629        C632   1.449   1_556  S
C630        C634   1.452       .  S
C631        N638   1.157   1_545  T
C632       N1423   1.156       .  T
C633        N637   1.157       .  T
C634        N640   1.157       .  T
C635        N644   1.157       .  T
C636        N642   1.157       .  T
N639       C1416   1.156       .  T
C645        C646   1.410       .  A
C645        C650   1.411       .  A
C645        C663   1.451       .  S
C646        C647   1.408       .  A
C646        C651   1.492       .  S
C647        C648   1.406       .  A
C647        C652   1.448       .  S
C648        C649   1.415       .  A
C648        C664   1.453       .  S
C649        C650   1.414       .  A
C650        C653   1.450       .  S
C651        C654   1.406       .  A
C651        C658   1.408       .  A
C652        N669   1.156       .  T
C653        N671   1.157       .  T
C654        C655   1.406       .  A
C654        C659   1.452   1_556  S
C655        C656   1.416       .  A
C655        C661   1.451   1_556  S
C656        C657   1.415       .  A
C657        C658   1.413       .  A
C657        C660   1.446   1_545  S
C658        C662   1.450       .  S
C659        N666   1.157       .  T
C660        N667   1.157       .  T
C661        N665   1.156       .  T
C662        N668   1.157       .  T
C663        N672   1.157   1_556  T
C664        N670   1.157       .  T
C673        C674   1.407       .  A
C673        C678   1.415   1_655  A
C673        C691   1.455   1_655  S
C674       C1459   1.407       .  A
C674        C679   1.508       .  S
C675        C676   1.417       .  A
C675       C1458   1.407       .  A
C675        C680   1.451       .  S
C676       C1461   1.423       .  A
C676        C692   1.446   1_545  S
C677        C678   1.426   1_655  A
C677       C1460   1.423       .  A
C677        C788   1.528       .  S
C678        C681   1.442       .  S
C679        C682   1.411   1_655  A
C679       C1470   1.408       .  A
C680        N697   1.157       .  T
C681        N699   1.157       .  T
C682        C683   1.418       .  A
C682        C687   1.451       .  S
C683        C684   1.426   1_455  A
C683        C689   1.451       .  S
C684       C1469   1.427       .  A
C685        C686   1.411       .  A
C685       C1468   1.427       .  A
C685        C688   1.453       .  S
C686       C1463   1.408       .  A
C686        C690   1.451       .  S
C687        N694   1.157       .  T
C688        N695   1.158       .  T
C689        N693   1.158       .  T
C690        N696   1.156       .  T
C691        N700   1.157       .  T
C692        N698   1.156       .  T
C701        C702   1.407       .  A
C701        C706   1.409       .  A
C701        C719   1.451       .  S
C702        C703   1.411       .  A
C702        C707   1.502       .  S
C703        C704   1.417       .  A
C703        C708   1.449   1_554  S
C704        C705   1.417       .  A
C704        C720   1.449       .  S
C705        C706   1.423       .  A
C706        C709   1.452       .  S
C707        C710   1.405       .  A
C707        C714   1.407       .  A
C708        N725   1.157       .  T
C709        N727   1.157       .  T
C710        C711   1.411       .  A
C710        C715   1.455       .  S
C711        C712   1.426       .  A
C711        C717   1.445       .  S
C712        C713   1.427       .  A
C713        C714   1.418       .  A
C713        C716   1.448   1_565  S
C714        C718   1.450       .  S
C715        N722   1.157       .  T
C716        N723   1.157       .  T
C717        N721   1.156       .  T
C718        N724   1.157       .  T
C719        N728   1.157       .  T
C720        N726   1.157   1_554  T
C729        C730   1.407       .  A
C729        C734   1.409       .  A
C729        C747   1.443       .  S
C730        C731   1.411       .  A
C730        C735   1.509       .  S
C731        C732   1.419       .  A
C731        C736   1.450   1_554  S
C732        C733   1.421       .  A
C732        C748   1.448       .  S
C733        C734   1.423       .  A
C734        C737   1.455       .  S
C735        C738   1.407       .  A
C735        C742   1.406       .  A
C736        N753   1.157       .  T
C737        N755   1.158       .  T
C738        C739   1.419       .  A
C738        C743   1.453       .  S
C739        C740   1.429       .  A
C739        C745   1.443   1_565  S
C740        C741   1.420       .  A
C741        C742   1.415       .  A
C741        C744   1.444   1_554  S
C742        C746   1.451       .  S
C743        N750   1.157       .  T
C744        N751   1.156       .  T
C745        N749   1.158       .  T
C746        N752   1.157   1_554  T
C747        N756   1.153       .  T
C748        N754   1.157   1_554  T
C757        C762   1.398       .  A
C757       C1542   1.412       .  A
C757        C775   1.451       .  S
C758        C759   1.419       .  A
C758       C1541   1.412   1_455  A
C758        C763   1.499       .  S
C759        C760   1.414       .  A
C759        C764   1.449       .  S
C760        C761   1.411       .  A
C760        C776   1.442   1_565  S
C761       C1546   1.410   1_455  A
C762       C1545   1.410       .  A
C762        C765   1.446       .  S
C763        C766   1.415       .  A
C763       C1554   1.418       .  A
C764        N781   1.157       .  T
C765        N783   1.157       .  T
C766        C767   1.408       .  A
C766        C771   1.453       .  S
C767        C768   1.411       .  A
C767        C773   1.451       .  S
C768       C1553   1.408       .  A
C769        C770   1.411       .  A
C769       C1552   1.408       .  A
C769        C772   1.451       .  S
C770       C1547   1.418       .  A
C770        C774   1.451       .  S
C771        N778   1.157       .  T
C772        N779   1.157       .  T
C773        N777   1.157       .  T
C774        N780   1.157       .  T
C775        N784   1.157       .  T
C776        N782   1.157       .  T
C785        C786   1.450       .  A
C785       C1545   1.539       .  S
C786        C787   1.427   1_564  A
C786       C1524   1.533       .  S
C787       C1440   1.496       .  S
C788        C789   1.424       .  A
C789        C790   1.434   1_546  A
C789       C1412   1.508       .  S
C790       C1496   1.524       .  S
O791       Cr809   1.980       .  S
O792       Cr809   2.001       .  S
O792        C793   1.264       .  A
C793       C1293   1.496       .  S
C793        O794   1.263       .  A
O795       Cr810   2.018       .  S
O795        C796   1.270       .  A
C796       C1265   1.495       .  S
C796        O797   1.265       .  A
O797       Cr811   1.986       .  S
O798       Cr811   1.990       .  S
O798        C799   1.258       .  A
C799       C1377   1.485       .  S
O800       Cr809   2.009       .  S
O801       Cr809   1.975       .  S
O801        C802   1.261       .  A
C802       C1328   1.486       .  S
C802        O803   1.266       .  A
O804       Cr810   2.005       .  S
O804        C805   1.263       .  A
C805       C1349   1.488       .  S
C805        O806   1.258       .  A
O806       Cr811   1.982       .  S
O807       Cr811   1.990       .  S
O807        C808   1.265       .  A
C808       C1468   1.517       .  S
Cr810       O812   1.780       .  S
Cr811       O812   1.777       .  S
C813        C818   1.429       .  A
C813       C1384   1.501       .  S
C814        C815   1.419   1_556  A
C814       C1153   1.516       .  S
C815       C1216   1.511       .  S
C816        C817   1.427       .  A
C816       C1244   1.501       .  S
C817        C818   1.428   1_554  A
C817       C1181   1.518       .  S
C818       C1125   1.515       .  S
O819       Cr837   1.975       .  S
O820       Cr837   2.005       .  S
O820        C821   1.267       .  A
C821       C1048   1.501       .  S
C821        O822   1.266       .  A
O823       Cr838   2.030       .  S
O823        C824   1.271       .  A
C824       C1013   1.487       .  S
C824        O825   1.259       .  A
O825       Cr839   1.965       .  S
O826       Cr839   1.995       .  S
O826        C827   1.260       .  A
C827       C1237   1.482       .  S
O828       Cr837   2.016       .  S
O829       Cr837   1.971       .  S
O829        C830   1.259       .  A
C830       C1076   1.510       .  S
C830        O831   1.268       .  A
O832       Cr838   2.011       .  S
O832        C833   1.266       .  A
C833       C1104   1.505       .  S
C833        O834   1.260       .  A
O834       Cr839   1.995       .  S
O835       Cr839   1.973       .  S
O835        C836   1.258       .  A
C836       C1552   1.477       .  S
Cr838       O840   1.772       .  S
Cr839       O840   1.767       .  S
C841        C842   1.437       .  A
C841        C846   1.439       .  A
C841        C964   1.535       .  S
C842        C843   1.415   1_565  A
C842       C1097   1.520       .  S
C843        C844   1.420       .  A
C843       C1356   1.503       .  S
C844        C845   1.424       .  A
C844        C992   1.494       .  S
C845        C846   1.436   1_545  A
C845       C1321   1.519       .  S
C846       C1069   1.544       .  S
O847       Cr865   1.995       .  S
O847        C855   1.263       .  A
O848       Cr865   1.969       .  S
O848        C849   1.257       .  A
C849       C1517   1.508       .  S
C849        O850   1.269       .  A
O850       Cr866   2.029       .  S
O851       Cr866   2.009       .  S
O851        C852   1.263       .  A
C852       C1489   1.500       .  S
C852        O853   1.257       .  A
O853       Cr867   1.987       .  S
O854       Cr867   1.979       .  S
O854        C855   1.260       .  A
C855        C957   1.481       .  S
O856       Cr865   1.993       .  S
O856        C864   1.263       .  A
O857       Cr865   1.990       .  S
O857        C858   1.264       .  A
C858       C1188   1.512       .  S
C858        O859   1.266       .  A
O859       Cr866   2.001       .  S
O860       Cr866   2.041       .  S
O860        C861   1.276       .  A
C861       C1209   1.484       .  S
C861        O862   1.259       .  A
O862       Cr867   1.964       .  S
O863       Cr867   1.990       .  S
O863        C864   1.260       .  A
C864        C929   1.513       .  S
Cr865       O868   1.762       .  S
Cr866       O868   1.779       .  S
Cr867       O868   1.766       .  S
C869        C870   1.428       .  A
C869        C874   1.427       .  A
C869        C901   1.501       .  S
C870        C871   1.425       .  A
C870       C1300   1.519       .  S
C871        C872   1.430       .  A
C871       C1041   1.514       .  S
C872        C873   1.429       .  A
C872        C936   1.512       .  S
C873        C874   1.427       .  A
C873       C1020   1.510       .  S
C874       C1272   1.518       .  S
O875       Cr893   1.994       .  S
O875        C883   1.266       .  A
O876       Cr893   1.968       .  S
O876        C877   1.259       .  A
C877       C1160   1.484       .  S
C877        O878   1.268       .  A
O878       Cr894   2.015       .  S
O879       Cr894   2.008       .  S
O879        C880   1.262       .  A
C880       C1132   1.483       .  S
C880        O881   1.255       .  A
O881       Cr895   1.978       .  S
O882       Cr895   1.978       .  S
O882        C883   1.262       .  A
C883        C908   1.490       .  S
O884       Cr893   1.980       .  S
O884        C892   1.259       .  A
O885       Cr893   1.992       .  S
O885        C886   1.262       .  A
C886       C1405   1.494       .  S
C886        O887   1.263       .  A
O887       Cr894   1.993       .  S
O888       Cr894   2.021       .  S
O888        C889   1.273       .  A
C889       C1433   1.481       .  S
C889        O890   1.262       .  A
O890       Cr895   1.964       .  S
O891       Cr895   1.992       .  S
O891        C892   1.258       .  A
C892        C985   1.479       .  S
Cr893       O896   1.765       .  S
Cr894       O896   1.770       .  S
Cr895       O896   1.769       .  S
C897        C898   1.402       .  A
C897        C902   1.407       .  A
C897        C915   1.452       .  S
C898        C899   1.407       .  A
C898        C903   1.486       .  S
C899        C900   1.409       .  A
C899        C904   1.453       .  S
C900        C901   1.418       .  A
C900        C916   1.445       .  S
C901        C902   1.420       .  A
C902        C905   1.447       .  S
C903        C906   1.408       .  A
C903        C910   1.404       .  A
C904        N921   1.157       .  T
C905        N923   1.156       .  T
C906        C907   1.410       .  A
C906        C911   1.450       .  S
C907        C908   1.420       .  A
C907        C913   1.451       .  S
C908        C909   1.420       .  A
C909        C910   1.402       .  A
C909        C912   1.454       .  S
C910        C914   1.449       .  S
C911        N918   1.157       .  T
C912        N919   1.158       .  T
C913        N917   1.158       .  T
C914        N920   1.156       .  T
C915        N924   1.157       .  T
C916        N922   1.157       .  T
C925        C926   1.407       .  A
C925        C930   1.410       .  A
C925        C943   1.455       .  S
C926        C927   1.412       .  A
C926        C931   1.503       .  S
C927        C928   1.416       .  A
C927        C932   1.452       .  S
C928        C929   1.424       .  A
C928        C944   1.451       .  S
C929        C930   1.432       .  A
C930        C933   1.454       .  S
C931        C934   1.410       .  A
C931        C938   1.409       .  A
C932        N949   1.157       .  T
C933        N951   1.158       .  T
C934        C935   1.412       .  A
C934        C939   1.455       .  S
C935        C936   1.421       .  A
C935        C941   1.444       .  S
C936        C937   1.419       .  A
C937        C938   1.411       .  A
C937        C940   1.449       .  S
C938        C942   1.451       .  S
C939        N946   1.157       .  T
C940        N947   1.157       .  T
C941        N945   1.157       .  T
C942        N948   1.157       .  T
C943        N952   1.157       .  T
C944        N950   1.158       .  T
C953        C954   1.408       .  A
C953        C958   1.405       .  A
C953        C971   1.449       .  S
C954        C955   1.411       .  A
C954        C959   1.489       .  S
C955        C956   1.410       .  A
C955        C960   1.451       .  S
C956        C957   1.414       .  A
C956        C972   1.451       .  S
C957        C958   1.415       .  A
C958        C961   1.453       .  S
C959        C962   1.410       .  A
C959        C966   1.408       .  A
C960        N977   1.157       .  T
C961        N979   1.157       .  T
C962        C963   1.410       .  A
C962        C967   1.449       .  S
C963        C964   1.420       .  A
C963        C969   1.446       .  S
C964        C965   1.408       .  A
C965        C966   1.408       .  A
C965        C968   1.441   1_565  S
C966        C970   1.449       .  S
C967        N974   1.157       .  T
C968        N975   1.157       .  T
C969        N973   1.157       .  T
C970        N976   1.157       .  T
C971        N980   1.156       .  T
C972        N978   1.157       .  T
C981        C982   1.410       .  A
C981        C986   1.405       .  A
C981        C999   1.449       .  S
C982        C983   1.408       .  A
C982        C987   1.488       .  S
C983        C984   1.408       .  A
C983        C988   1.452       .  S
C984        C985   1.418       .  A
C984       C1000   1.450       .  S
C985        C986   1.412       .  A
C986        C989   1.452       .  S
C987        C990   1.406       .  A
C987        C994   1.407       .  A
C988       N1005   1.158       .  T
C989       N1007   1.157       .  T
C990        C991   1.405       .  A
C990        C995   1.452       .  S
C991        C992   1.416       .  A
C991        C997   1.450       .  S
C992        C993   1.415       .  A
C993        C994   1.408       .  A
C993        C996   1.445       .  S
C994        C998   1.452       .  S
C995       N1002   1.157       .  T
C996       N1003   1.157       .  T
C997       N1001   1.156   1_545  T
C998       N1004   1.157       .  T
C999       N1008   1.156       .  T
C1000      N1006   1.157       .  T
C1009      C1010   1.414       .  A
C1009      C1014   1.416       .  A
C1009      C1027   1.450       .  S
C1010      C1011   1.412       .  A
C1010      C1015   1.505       .  S
C1011      C1012   1.406       .  A
C1011      C1016   1.447       .  S
C1012      C1013   1.413       .  A
C1012      C1028   1.454       .  S
C1013      C1014   1.414       .  A
C1014      C1017   1.449       .  S
C1015      C1018   1.410       .  A
C1015      C1022   1.409       .  A
C1016      N1033   1.155       .  T
C1017      N1035   1.157       .  T
C1018      C1019   1.415       .  A
C1018      C1023   1.452       .  S
C1019      C1020   1.419       .  A
C1019      C1025   1.445       .  S
C1020      C1021   1.418       .  A
C1021      C1022   1.412       .  A
C1021      C1024   1.449       .  S
C1022      C1026   1.452       .  S
C1023      N1030   1.157       .  T
C1024      N1031   1.157       .  T
C1025      N1029   1.157       .  T
C1026      N1032   1.157       .  T
C1027      N1036   1.157       .  T
C1028      N1034   1.157       .  T
C1037      C1038   1.408       .  A
C1037      C1042   1.410       .  A
C1037      C1055   1.452       .  S
C1038      C1039   1.411       .  A
C1038      C1043   1.504       .  S
C1039      C1040   1.415       .  A
C1039      C1044   1.452       .  S
C1040      C1041   1.420       .  A
C1040      C1056   1.446       .  S
C1041      C1042   1.420       .  A
C1042      C1045   1.447       .  S
C1043      C1046   1.414       .  A
C1043      C1050   1.409       .  A
C1044      N1061   1.157       .  T
C1045      N1063   1.156       .  T
C1046      C1047   1.417       .  A
C1046      C1051   1.451       .  S
C1047      C1048   1.419       .  A
C1047      C1053   1.450       .  S
C1048      C1049   1.420       .  A
C1049      C1050   1.409       .  A
C1049      C1052   1.448       .  S
C1050      C1054   1.453       .  S
C1051      N1058   1.157       .  T
C1052      N1059   1.156       .  T
C1053      N1057   1.157       .  T
C1054      N1060   1.157       .  T
C1055      N1064   1.157       .  T
C1056      N1062   1.157       .  T
C1065      C1066   1.408       .  A
C1065      C1070   1.407       .  A
C1065      C1083   1.447       .  S
C1066      C1067   1.411       .  A
C1066      C1071   1.499       .  S
C1067      C1068   1.417       .  A
C1067      C1072   1.452       .  S
C1068      C1069   1.430       .  A
C1068      C1084   1.443       .  S
C1069      C1070   1.410       .  A
C1070      C1073   1.441       .  S
C1071      C1074   1.409       .  A
C1071      C1078   1.407       .  A
C1072      N1089   1.157       .  T
C1073      N1091   1.157       .  T
C1074      C1075   1.413       .  A
C1074      C1079   1.453       .  S
C1075      C1076   1.426       .  A
C1075      C1081   1.451       .  S
C1076      C1077   1.425       .  A
C1077      C1078   1.413       .  A
C1077      C1080   1.452       .  S
C1078      C1082   1.449       .  S
C1079      N1086   1.157       .  T
C1080      N1087   1.157       .  T
C1081      N1085   1.157       .  T
C1082      N1088   1.157       .  T
C1083      N1092   1.157       .  T
C1084      N1090   1.155       .  T
C1093      C1094   1.408       .  A
C1093      C1098   1.415       .  A
C1093      C1111   1.453       .  S
C1094      C1095   1.407       .  A
C1094      C1099   1.506       .  S
C1095      C1096   1.415       .  A
C1095      C1100   1.450       .  S
C1096      C1097   1.422       .  A
C1096      C1112   1.450       .  S
C1097      C1098   1.425       .  A
C1098      C1101   1.444   1_565  S
C1099      C1102   1.407       .  A
C1099      C1106   1.413       .  A
C1100      N1117   1.157       .  T
C1101      N1119   1.157       .  T
C1102      C1103   1.409       .  A
C1102      C1107   1.451       .  S
C1103      C1104   1.424       .  A
C1103      C1109   1.453       .  S
C1104      C1105   1.419       .  A
C1105      C1106   1.419       .  A
C1105      C1108   1.450       .  S
C1106      C1110   1.450       .  S
C1107      N1114   1.156       .  T
C1108      N1115   1.157       .  T
C1109      N1113   1.158       .  T
C1110      N1116   1.158       .  T
C1111      N1120   1.157       .  T
C1112      N1118   1.157       .  T
C1121      C1122   1.409   1_554  A
C1121      C1126   1.410       .  A
C1121      C1139   1.453       .  S
C1122      C1123   1.412       .  A
C1122      C1127   1.508       .  S
C1123      C1124   1.418       .  A
C1123      C1128   1.452       .  S
C1124      C1125   1.421       .  A
C1124      C1140   1.445       .  S
C1125      C1126   1.418   1_556  A
C1126      C1129   1.446       .  S
C1127      C1130   1.415       .  A
C1127      C1134   1.416       .  A
C1128      N1145   1.157       .  T
C1129      N1147   1.156       .  T
C1130      C1131   1.408       .  A
C1130      C1135   1.451       .  S
C1131      C1132   1.412       .  A
C1131      C1137   1.453       .  S
C1132      C1133   1.412       .  A
C1133      C1134   1.416       .  A
C1133      C1136   1.451       .  S
C1134      C1138   1.448       .  S
C1135      N1142   1.157       .  T
C1136      N1143   1.157       .  T
C1137      N1141   1.157       .  T
C1138      N1144   1.157       .  T
C1139      N1148   1.157       .  T
C1140      N1146   1.157       .  T
C1149      C1150   1.403   1_554  A
C1149      C1154   1.411       .  A
C1149      C1167   1.452       .  S
C1150      C1151   1.409       .  A
C1150      C1155   1.500       .  S
C1151      C1152   1.417       .  A
C1151      C1156   1.452       .  S
C1152      C1153   1.421       .  A
C1152      C1168   1.444       .  S
C1153      C1154   1.421   1_556  A
C1154      C1157   1.444       .  S
C1155      C1158   1.412       .  A
C1155      C1162   1.410       .  A
C1156      N1173   1.157       .  T
C1158      C1159   1.414       .  A
C1158      C1163   1.449       .  S
C1159      C1160   1.413       .  A
C1159      C1165   1.449       .  S
C1160      C1161   1.414       .  A
C1161      C1162   1.409       .  A
C1161      C1164   1.452       .  S
C1162      C1166   1.448       .  S
C1163      N1170   1.157   1_556  T
C1164      N1171   1.157       .  T
C1165      N1169   1.157       .  T
C1166      N1172   1.156       .  T
C1167      N1176   1.157       .  T
C1168      N1174   1.157       .  T
C1177      C1178   1.408       .  A
C1177      C1182   1.416       .  A
C1177      C1195   1.452       .  S
C1178      C1179   1.407   1_554  A
C1178      C1183   1.505       .  S
C1179      C1180   1.415       .  A
C1179      C1184   1.451       .  S
C1180      C1181   1.421   1_556  A
C1180      C1196   1.447       .  S
C1181      C1182   1.422       .  A
C1182      C1185   1.444       .  S
C1183      C1186   1.411       .  A
C1183      C1190   1.406       .  A
C1184      N1201   1.157       .  T
C1185      N1203   1.157       .  T
C1186      C1187   1.420       .  A
C1186      C1191   1.448   1_554  S
C1187      C1188   1.422       .  A
C1187      C1193   1.448       .  S
C1188      C1189   1.425       .  A
C1189      C1190   1.408       .  A
C1189      C1192   1.453       .  S
C1190      C1194   1.449       .  S
C1191      N1198   1.157       .  T
C1192      N1199   1.157       .  T
C1193      N1197   1.157   1_554  T
C1194      N1200   1.155       .  T
C1195      N1204   1.157       .  T
C1196      N1202   1.156       .  T
C1205      C1206   1.416       .  A
C1205      C1210   1.411       .  A
C1205      C1223   1.452       .  S
C1206      C1207   1.416       .  A
C1206      C1211   1.508       .  S
C1207      C1208   1.414       .  A
C1207      C1212   1.450       .  S
C1208      C1209   1.411       .  A
C1208      C1224   1.449       .  S
C1209      C1210   1.412       .  A
C1210      C1213   1.452       .  S
C1211      C1214   1.413       .  A
C1211      C1218   1.409       .  A
C1212      N1229   1.157       .  T
C1213      N1231   1.157       .  T
C1214      C1215   1.415       .  A
C1214      C1219   1.451       .  S
C1215      C1216   1.416       .  A
C1215      C1221   1.444       .  S
C1216      C1217   1.418   1_554  A
C1217      C1218   1.411   1_556  A
C1217      C1220   1.446       .  S
C1218      C1222   1.453   1_554  S
C1219      N1226   1.157       .  T
C1220      N1227   1.156       .  T
C1221      N1225   1.157       .  T
C1222      N1228   1.157       .  T
C1223      N1232   1.157       .  T
C1224      N1230   1.157       .  T
C1233      C1234   1.411       .  A
C1233      C1238   1.408       .  A
C1233      C1251   1.452       .  S
C1234      C1239   1.491       .  S
C1235      C1236   1.407       .  A
C1235      C1240   1.450       .  S
C1236      C1252   1.451       .  S
C1237      C1238   1.415       .  A
C1238      C1241   1.452       .  S
C1239      C1246   1.409       .  A
C1240      N1257   1.157       .  T
C1241      N1259   1.157       .  T
C1242      C1243   1.404       .  A
C1242      C1247   1.453       .  S
C1243      C1249   1.444       .  S
C1244      C1245   1.417       .  A
C1245      C1246   1.414       .  A
C1245      C1248   1.445       .  S
C1246      C1250   1.451       .  S
C1247      N1254   1.157       .  T
C1248      N1255   1.157   1_554  T
C1249      N1253   1.155       .  T
C1250      N1256   1.157       .  T
C1251      N1260   1.157       .  T
C1252      N1258   1.157       .  T
C1261      C1262   1.411       .  A
C1261      C1266   1.415       .  A
C1261      C1279   1.451       .  S
C1262      C1263   1.412       .  A
C1262      C1267   1.505       .  S
C1263      C1264   1.412       .  A
C1263      C1268   1.450       .  S
C1264      C1265   1.416       .  A
C1264      C1280   1.451       .  S
C1265      C1266   1.418       .  A
C1266      C1269   1.450       .  S
C1267      C1270   1.408       .  A
C1267      C1274   1.408       .  A
C1268      N1285   1.156       .  T
C1269      N1287   1.157       .  T
C1270      C1271   1.416       .  A
C1270      C1275   1.452       .  S
C1271      C1272   1.423       .  A
C1271      C1277   1.444       .  S
C1272      C1273   1.420       .  A
C1273      C1274   1.414       .  A
C1273      C1276   1.447       .  S
C1274      C1278   1.452       .  S
C1275      N1282   1.157       .  T
C1276      N1283   1.156       .  T
C1277      N1281   1.157       .  T
C1278      N1284   1.157       .  T
C1279      N1288   1.157       .  T
C1280      N1286   1.157       .  T
C1289      C1290   1.415       .  A
C1289      C1294   1.412       .  A
C1289      C1307   1.451       .  S
C1290      C1291   1.418       .  A
C1290      C1295   1.515       .  S
C1291      C1292   1.418       .  A
C1291      C1296   1.450       .  S
C1292      C1293   1.414       .  A
C1292      C1308   1.450       .  S
C1293      C1294   1.414       .  A
C1294      C1297   1.448       .  S
C1295      C1298   1.414       .  A
C1295      C1302   1.413       .  A
C1296      N1313   1.157       .  T
C1297      N1315   1.156       .  T
C1298      C1299   1.418       .  A
C1298      C1303   1.451       .  S
C1299      C1300   1.420       .  A
C1299      C1305   1.445       .  S
C1300      C1301   1.418       .  A
C1301      C1302   1.411       .  A
C1301      C1304   1.447       .  S
C1302      C1306   1.452       .  S
C1303      N1310   1.157       .  T
C1304      N1311   1.156       .  T
C1305      N1309   1.157       .  T
C1306      N1312   1.157       .  T
C1307      N1316   1.157       .  T
C1308      N1314   1.157       .  T
C1317      C1318   1.407       .  A
C1317      C1322   1.413       .  A
C1317      C1335   1.454       .  S
C1318      C1319   1.405       .  A
C1318      C1323   1.502       .  S
C1319      C1320   1.416       .  A
C1319      C1324   1.450       .  S
C1320      C1321   1.424       .  A
C1320      C1336   1.450       .  S
C1321      C1322   1.425       .  A
C1322      C1325   1.446       .  S
C1323      C1326   1.411       .  A
C1323      C1330   1.410       .  A
C1324      N1341   1.157       .  T
C1325      N1343   1.158       .  T
C1326      C1327   1.416       .  A
C1326      C1331   1.449       .  S
C1327      C1328   1.413       .  A
C1327      C1333   1.447       .  S
C1328      C1329   1.412       .  A
C1329      C1330   1.408       .  A
C1329      C1332   1.452       .  S
C1330      C1334   1.446       .  S
C1331      N1338   1.157       .  T
C1332      N1339   1.157       .  T
C1333      N1337   1.157       .  T
C1334      N1340   1.156       .  T
C1335      N1344   1.157       .  T
C1336      N1342   1.157       .  T
C1345      C1346   1.417       .  A
C1345      C1350   1.416       .  A
C1345      C1363   1.450       .  S
C1346      C1347   1.411       .  A
C1346      C1351   1.505       .  S
C1347      C1348   1.404       .  A
C1347      C1352   1.450       .  S
C1348      C1349   1.414       .  A
C1348      C1364   1.450       .  S
C1349      C1350   1.413       .  A
C1350      C1353   1.448       .  S
C1351      C1354   1.413       .  A
C1351      C1358   1.414       .  A
C1352      N1369   1.156       .  T
C1353      N1371   1.157       .  T
C1354      C1355   1.408       .  A
C1354      C1359   1.453       .  S
C1355      C1356   1.415       .  A
C1355      C1361   1.450       .  S
C1356      C1357   1.415       .  A
C1357      C1358   1.414       .  A
C1357      C1360   1.446   1_545  S
C1358      C1362   1.451       .  S
C1359      N1366   1.157       .  T
C1360      N1367   1.157       .  T
C1361      N1365   1.156       .  T
C1362      N1368   1.157       .  T
C1363      N1372   1.157       .  T
C1364      N1370   1.156       .  T
C1373      C1374   1.406       .  A
C1373      C1378   1.404       .  A
C1373      C1391   1.452       .  S
C1374      C1379   1.489       .  S
C1375      C1376   1.409       .  A
C1375      C1380   1.450       .  S
C1376      C1392   1.451       .  S
C1377      C1378   1.418       .  A
C1378      C1381   1.450       .  S
C1379      C1382   1.403       .  A
C1380      N1397   1.157       .  T
C1381      N1399   1.156       .  T
C1382      C1383   1.404       .  A
C1382      C1387   1.453       .  S
C1383      C1384   1.418       .  A
C1383      C1389   1.446       .  S
C1385      C1386   1.412       .  A
C1385      C1388   1.445       .  S
C1386      C1390   1.452       .  S
C1387      N1394   1.157       .  T
C1388      N1395   1.157   1_556  T
C1389      N1393   1.155       .  T
C1390      N1396   1.157       .  T
C1391      N1400   1.156       .  T
C1392      N1398   1.158       .  T
C1401      C1402   1.414       .  A
C1401      C1406   1.413       .  A
C1401      C1419   1.451   1_556  S
C1402      C1403   1.411       .  A
C1402      C1407   1.504       .  S
C1403      C1404   1.411       .  A
C1403      C1408   1.452       .  S
C1404      C1405   1.419       .  A
C1404      C1420   1.450       .  S
C1405      C1406   1.415       .  A
C1406      C1409   1.450       .  S
C1407      C1410   1.413       .  A
C1407      C1414   1.410       .  A
C1408      N1425   1.158       .  T
C1409      N1427   1.157   1_556  T
C1410      C1411   1.417       .  A
C1410      C1415   1.449       .  S
C1411      C1412   1.419       .  A
C1411      C1417   1.447   1_545  S
C1412      C1413   1.415       .  A
C1413      C1414   1.404       .  A
C1413      C1416   1.449   1_556  S
C1414      C1418   1.452       .  S
C1415      N1422   1.157   1_545  T
C1417      N1421   1.157       .  T
C1418      N1424   1.157       .  T
C1419      N1428   1.157       .  T
C1420      N1426   1.157       .  T
C1429      C1430   1.410       .  A
C1429      C1434   1.411       .  A
C1429      C1447   1.451       .  S
C1430      C1431   1.408       .  A
C1430      C1435   1.492       .  S
C1431      C1432   1.406       .  A
C1431      C1436   1.448       .  S
C1432      C1433   1.415       .  A
C1432      C1448   1.453       .  S
C1433      C1434   1.414       .  A
C1434      C1437   1.450       .  S
C1435      C1438   1.406       .  A
C1435      C1442   1.408       .  A
C1436      N1453   1.156       .  T
C1437      N1455   1.157       .  T
C1438      C1439   1.406       .  A
C1438      C1443   1.452   1_556  S
C1439      C1440   1.416       .  A
C1439      C1445   1.451   1_556  S
C1440      C1441   1.415       .  A
C1441      C1442   1.413       .  A
C1441      C1444   1.446   1_545  S
C1442      C1446   1.450       .  S
C1443      N1450   1.157       .  T
C1444      N1451   1.157       .  T
C1445      N1449   1.156       .  T
C1446      N1452   1.157       .  T
C1447      N1456   1.157   1_556  T
C1448      N1454   1.157       .  T
C1457      C1458   1.407       .  A
C1457      C1462   1.415       .  A
C1457      C1475   1.455       .  S
C1458      C1463   1.508       .  S
C1459      C1460   1.417       .  A
C1459      C1464   1.451       .  S
C1460      C1476   1.446   1_545  S
C1461      C1462   1.426       .  A
C1462      C1465   1.442       .  S
C1463      C1466   1.411       .  A
C1464      N1481   1.157       .  T
C1465      N1483   1.157       .  T
C1466      C1467   1.418       .  A
C1466      C1471   1.451       .  S
C1467      C1468   1.426       .  A
C1467      C1473   1.451       .  S
C1469      C1470   1.411       .  A
C1469      C1472   1.453       .  S
C1470      C1474   1.451       .  S
C1471      N1478   1.157       .  T
C1472      N1479   1.158       .  T
C1473      N1477   1.158       .  T
C1474      N1480   1.156       .  T
C1475      N1484   1.157       .  T
C1476      N1482   1.156       .  T
C1485      C1486   1.407       .  A
C1485      C1490   1.409       .  A
C1485      C1503   1.451       .  S
C1486      C1487   1.411       .  A
C1486      C1491   1.502       .  S
C1487      C1488   1.417       .  A
C1487      C1492   1.449   1_554  S
C1488      C1489   1.417       .  A
C1488      C1504   1.449       .  S
C1489      C1490   1.423       .  A
C1490      C1493   1.452       .  S
C1491      C1494   1.405       .  A
C1491      C1498   1.407       .  A
C1492      N1509   1.157       .  T
C1493      N1511   1.157       .  T
C1494      C1495   1.411       .  A
C1494      C1499   1.455       .  S
C1495      C1496   1.426       .  A
C1495      C1501   1.445       .  S
C1496      C1497   1.427       .  A
C1497      C1498   1.418       .  A
C1497      C1500   1.448   1_565  S
C1498      C1502   1.450       .  S
C1499      N1506   1.157       .  T
C1500      N1507   1.157       .  T
C1501      N1505   1.156       .  T
C1502      N1508   1.157       .  T
C1503      N1512   1.157       .  T
C1504      N1510   1.157   1_554  T
C1513      C1514   1.407       .  A
C1513      C1518   1.409       .  A
C1513      C1531   1.443       .  S
C1514      C1515   1.411       .  A
C1514      C1519   1.509       .  S
C1515      C1516   1.419       .  A
C1515      C1520   1.450   1_554  S
C1516      C1517   1.421       .  A
C1516      C1532   1.448       .  S
C1517      C1518   1.423       .  A
C1518      C1521   1.455       .  S
C1519      C1522   1.407       .  A
C1519      C1526   1.406       .  A
C1520      N1537   1.157       .  T
C1521      N1539   1.158       .  T
C1522      C1523   1.419       .  A
C1522      C1527   1.453       .  S
C1523      C1524   1.429       .  A
C1523      C1529   1.443   1_565  S
C1524      C1525   1.420       .  A
C1525      C1526   1.415       .  A
C1525      C1528   1.444   1_554  S
C1526      C1530   1.451       .  S
C1527      N1534   1.157       .  T
C1528      N1535   1.156       .  T
C1529      N1533   1.158       .  T
C1530      N1536   1.157   1_554  T
C1531      N1540   1.153       .  T
C1532      N1538   1.157   1_554  T
C1541      C1546   1.398       .  A
C1541      C1559   1.451       .  S
C1542      C1543   1.419       .  A
C1542      C1547   1.499       .  S
C1543      C1544   1.414       .  A
C1543      C1548   1.449       .  S
C1544      C1545   1.411       .  A
C1544      C1560   1.442   1_565  S
C1546      C1549   1.446       .  S
C1547      C1550   1.415       .  A
C1548      N1565   1.157       .  T
C1549      N1567   1.157       .  T
C1550      C1551   1.408       .  A
C1550      C1555   1.453       .  S
C1551      C1552   1.411       .  A
C1551      C1557   1.451       .  S
C1553      C1554   1.411       .  A
C1553      C1556   1.451       .  S
C1554      C1558   1.451       .  S
C1555      N1562   1.157       .  T
C1556      N1563   1.157       .  T
C1557      N1561   1.157       .  T
C1558      N1564   1.157       .  T
C1559      N1568   1.157       .  T
C1560      N1566   1.157       .  T
