geometry optimzed in LAMMPS
_audit_creation_date              2020-11-30 
_audit_creation_method            'lammps2cif' 
_symmetry_space_group_name_H-M    'P1' 
_symmetry_Int_Tables_number       1 
_symmetry_cell_setting            triclinic 
loop_ 
_symmetry_equiv_pos_as_xyz 
  x,y,z 
_cell_length_a                    41.4154858 
_cell_length_b                    41.30737921442376 
_cell_length_c                    43.86211988831243 
_cell_angle_alpha                 90.44686025741797 
_cell_angle_beta                  89.68764259026597 
_cell_angle_gamma                 120.04045454547848 
loop_ 
_atom_site_label 
_atom_site_type_symbol 
_atom_site_fract_x 
_atom_site_fract_y 
_atom_site_fract_z 
_atom_site_charge 
O1          O  0.47335514  0.07425345  0.30115505    -0.75600
O2          O  0.48573606  0.04219519  0.33708709    -0.54500
C3          C  0.47543335  0.06553441  0.32892269     0.78200
O4          O  0.39501845  0.93254537  0.20154179    -0.60200
O5          O  0.44085656  0.96208661  0.16582907    -0.53200
C6          C  0.40669144  0.94053011  0.17393251     0.70200
O7          O  0.39828977  0.93377903  0.30406658    -0.74700
O8          O  0.44571966  0.96115106  0.33842818    -0.55300
C9          C  0.41129481  0.93998182  0.33145625     0.76200
O10         O  0.47797160  0.07555943  0.19730469    -0.59900
O11         O  0.49020256  0.04169370  0.16287450    -0.53000
C12         C  0.48122765  0.06629620  0.16968109     0.72800
Zr13       Zr  0.48711143  0.06058588  0.24997354     2.54700
O14         O  0.43882943  0.07769848  0.24828965    -0.80400
O15         O  0.53421519  0.12669589  0.25095777    -0.93800
Zr16       Zr  0.42264440  0.94929898  0.25197375     2.64700
O17         O  0.36824401  0.95723926  0.25285682    -0.98800
O18         O  0.38588933  0.88134611  0.25054158    -0.80900
O19         O  0.45460090  0.00568424  0.28013301    -0.84200
O20         O  0.45344736  0.00430715  0.22205097    -2.18900
O21         O  0.60284663  0.07055439  0.20002770    -0.67600
O22         O  0.55714444  0.03696768  0.16551012    -0.52200
C23         C  0.59099158  0.06123032  0.17251190     0.71200
O24         O  0.52690853  0.92452498  0.30076401    -0.60500
O25         O  0.51772855  0.96002282  0.33590086    -0.52500
C26         C  0.52654124  0.93517806  0.32837380     0.73000
O27         O  0.52192551  0.92355497  0.19799198    -0.71900
O28         O  0.50897511  0.95611419  0.16310600    -0.50600
C29         C  0.51874714  0.93234172  0.17049616     0.74400
O30         O  0.60132122  0.06829421  0.30273734    -0.67200
O31         O  0.55477854  0.03967396  0.33786784    -0.54400
C32         C  0.58877580  0.06156862  0.33026442     0.72700
Zr33       Zr  0.57734655  0.04937655  0.25097894     2.77500
O34         O  0.62382170  0.02974763  0.25341704    -0.98000
O35         O  0.62686001  0.11450600  0.25165845    -0.78800
Zr36       Zr  0.51270995  0.93864757  0.25020537     2.70100
O37         O  0.55990236  0.92020813  0.24577599    -0.80100
O38         O  0.46610601  0.87237610  0.25144395    -0.99100
Zr39       Zr  0.50034241  0.00027910  0.30863362     2.21500
Zr40       Zr  0.49935374  0.99908916  0.19317713     2.11100
O41         O  0.54576598  0.99411713  0.22119853    -2.47800
O42         O  0.54589672  0.99407611  0.27997892    -0.79800
O43         O  0.53302712  0.05594341  0.22114261    -0.72000
O44         O  0.46759698  0.94321744  0.28069872    -2.33000
O45         O  0.53266826  0.05656239  0.27985319    -2.29200
O46         O  0.46666011  0.94272670  0.22138982    -0.73800
H47         H  0.43551292  0.00588478  0.20909900     0.78200
H48         H  0.45573051  0.92199329  0.29417721     0.79300
H49         H  0.56346331  0.99261091  0.20769745     0.81500
H50         H  0.54472148  0.07818618  0.29308596     0.79100
H51         H  0.35974873  0.87566955  0.24872373     0.42200
H52         H  0.45848427  0.86706445  0.27309305     0.41100
H53         H  0.58356246  0.94396142  0.24264612     0.40800
H54         H  0.62134648  0.01618605  0.23409762     0.38700
H55         H  0.61365213  0.12878452  0.25408794     0.41900
H56         H  0.54220833  0.13220774  0.27251392     0.36600
H57         H  0.41612212  0.05447321  0.24182815     0.42800
H58         H  0.34770895  0.93313737  0.26046113     0.39200
H59         H  0.64807631  0.05321883  0.25174209     0.44100
H60         H  0.52000634  0.13975817  0.24754374     0.42800
H61         H  0.37314185  0.97523495  0.26968246     0.43000
H62         H  0.44411632  0.87044913  0.24094852     0.43300
O63         O  0.06897520  0.60347069  0.30299284    -0.75600
O64         O  0.03170090  0.55788597  0.33634843    -0.54500
C65         C  0.05674920  0.59169837  0.33004717     0.78200
O66         O  0.92751487  0.52553174  0.19393501    -0.60200
O67         O  0.96241360  0.51402149  0.15998191    -0.53200
C68         C  0.93711071  0.52219674  0.16652008     0.70200
O69         O  0.92660934  0.53261685  0.29843897    -0.74700
O70         O  0.95849530  0.51978000  0.33393721    -0.55300
C71         C  0.93559164  0.53048598  0.32620034     0.76200
O72         O  0.07484447  0.60533606  0.20169375    -0.59900
O73         O  0.04479380  0.56014773  0.16535423    -0.53000
C74         C  0.06752142  0.59393531  0.17397753     0.72800
Zr75       Zr  0.05419639  0.57741531  0.25145020     2.54700
O76         O  0.04709794  0.63241837  0.25151306    -0.80400
O77         O  0.12208987  0.61332361  0.25273757    -0.93800
Zr78       Zr  0.94305177  0.52079265  0.24718247     2.64700
O79         O  0.94141774  0.57884713  0.24409489    -0.98800
O80         O  0.87528612  0.48323016  0.24752388    -0.80900
O81         O  0.99701681  0.54902015  0.27827652    -0.84200
O82         O  0.00034963  0.55031406  0.22000211    -2.18900
O83         O  0.07160889  0.46873065  0.20133078    -0.67600
O84         O  0.04198802  0.48350559  0.16496319    -0.52200
C85         C  0.06384386  0.47160108  0.17338625     0.71200
O86         O  0.92628265  0.39739192  0.29774940    -0.60500
O87         O  0.95780826  0.44203224  0.33420512    -0.52500
C88         C  0.93505590  0.40819544  0.32557599     0.73000
O89         O  0.92691412  0.40229360  0.19442231    -0.71900
O90         O  0.96278756  0.44833038  0.16067726    -0.50600
C91         C  0.93719569  0.41488863  0.16712451     0.74400
O92         O  0.07053167  0.47594865  0.30553242    -0.67200
O93         O  0.03717180  0.48989846  0.33908639    -0.54400
C94         C  0.06187901  0.48083713  0.33291010     0.72700
Zr95       Zr  0.05503707  0.48115573  0.25215466     2.77500
O96         O  0.05446764  0.42241000  0.25849050    -0.98000
O97         O  0.12283079  0.51615263  0.25014698    -0.78800
Zr98       Zr  0.94406515  0.42499141  0.24723538     2.70100
O99         O  0.95226339  0.37059881  0.24587674    -0.80100
O100        O  0.87625396  0.38735913  0.24690378    -0.99100
Zr101      Zr  0.99638250  0.50049984  0.30717816     2.21500
Zr102      Zr  0.00282973  0.50228344  0.19158177     2.11100
O103        O  0.00123709  0.45295021  0.22049316    -2.47800
O104        O  0.99772682  0.45206885  0.27887410    -0.79800
O105        O  0.05762936  0.53035956  0.22226427    -0.72000
O106        O  0.94093268  0.47187892  0.27700728    -2.33000
O107        O  0.05454986  0.52976689  0.28099292    -2.29200
O108        O  0.94470587  0.47321190  0.21790133    -0.73800
H109        H  0.00072524  0.56901203  0.20669027     0.78200
H110        H  0.91893575  0.46081341  0.28976550     0.79300
H111        H  0.00134212  0.43402959  0.20750096     0.81500
H112        H  0.07532351  0.54086212  0.29497767     0.79100
H113        H  0.86671980  0.50155604  0.25024655     0.42200
H114        H  0.86806070  0.40240706  0.23526387     0.41100
H115        H  0.93466396  0.35390997  0.23011610     0.40800
H116        H  0.03472352  0.40472850  0.24450231     0.38700
H117        H  0.12921476  0.54243467  0.24727104     0.41900
H118        H  0.13013947  0.60130897  0.23719782     0.36600
H119        H  0.07179489  0.65315185  0.24519034     0.42800
H120        H  0.95401028  0.59044886  0.22465105     0.39200
H121        H  0.07811980  0.42672620  0.24917519     0.44100
H122        H  0.12897205  0.60693650  0.27245173     0.42800
H123        H  0.91485829  0.57086851  0.24059428     0.43000
H124        H  0.87050293  0.36576015  0.23346401     0.43300
O125        O  0.39245243  0.46412673  0.29715522    -0.75600
O126        O  0.43679902  0.47818964  0.33350126    -0.54500
C127        C  0.40311722  0.46669765  0.32507547     0.78200
O128        O  0.46989971  0.39552132  0.19794579    -0.60200
O129        O  0.48397605  0.44114157  0.16266788    -0.53200
C130        C  0.47370048  0.40741842  0.17042032     0.70200
O131        O  0.46415221  0.39529960  0.30084606    -0.74700
O132        O  0.47463841  0.44070405  0.33567065    -0.55300
C133        C  0.46481376  0.40689349  0.32830309     0.76200
O134        O  0.40008413  0.47285779  0.19392697    -0.59900
O135        O  0.44708465  0.48583989  0.16034549    -0.53000
C136        C  0.41336170  0.47694517  0.16662293     0.72800
Zr137      Zr  0.42195651  0.47906548  0.24675259     2.54700
O138        O  0.35922271  0.42580588  0.24116682    -0.80400
O139        O  0.39921646  0.52318906  0.24872894    -0.93800
Zr140      Zr  0.47528559  0.42079736  0.24930256     2.64700
O141        O  0.41505568  0.36345544  0.24613987    -0.98800
O142        O  0.50805625  0.38570002  0.25143928    -0.80900
O143        O  0.44662131  0.44913425  0.27701165    -0.84200
O144        O  0.44910110  0.44917525  0.21896316    -2.18900
O145        O  0.52660605  0.59901039  0.19734696    -0.67600
O146        O  0.51841596  0.55394916  0.16294716    -0.52200
C147        C  0.52602521  0.58732497  0.16987446     0.71200
O148        O  0.59541578  0.52997529  0.30378890    -0.60500
O149        O  0.54935026  0.51405254  0.33817107    -0.52500
C150        C  0.58395629  0.52755589  0.33138029     0.73000
O151        O  0.60023210  0.52383034  0.20158274    -0.71900
O152        O  0.55626125  0.51059890  0.16500499    -0.50600
C153        C  0.58950957  0.52050225  0.17374057     0.74400
O154        O  0.52877406  0.59997373  0.30039106    -0.67200
O155        O  0.51191941  0.55372650  0.33563038    -0.54400
C156        C  0.52451574  0.58793670  0.32789810     0.72700
Zr157      Zr  0.51885893  0.57379965  0.24905137     2.77500
O158        O  0.58022751  0.62933648  0.25289514    -0.98000
O159        O  0.48753689  0.61037428  0.24914715    -0.78800
Zr160      Zr  0.57205842  0.51601728  0.25161144     2.70100
O161        O  0.63102746  0.57459914  0.24923713    -0.80100
O162        O  0.60259580  0.47879858  0.25442745    -0.99100
Zr163      Zr  0.49464979  0.49702977  0.30709019     2.21500
Zr164      Zr  0.49974757  0.49734155  0.19135785     2.11100
O165        O  0.54763021  0.54577142  0.22101634    -2.47800
O166        O  0.54453766  0.54516204  0.27936672    -0.79800
O167        O  0.47133804  0.52677816  0.21829413    -0.72000
O168        O  0.52316140  0.46762454  0.28012315    -2.33000
O169        O  0.46859370  0.52677925  0.27784319    -2.29200
O170        O  0.52561941  0.46788160  0.22090944    -0.73800
H171        H  0.43079925  0.43088618  0.20524228     0.78200
H172        H  0.53301212  0.45671215  0.29403486     0.79300
H173        H  0.56708293  0.56430709  0.20825320     0.81500
H174        H  0.45785815  0.53772848  0.29105369     0.79100
H175        H  0.48806611  0.35934219  0.25388739     0.42200
H176        H  0.62247314  0.49162095  0.26984489     0.41100
H177        H  0.62680037  0.59232013  0.26157412     0.40800
H178        H  0.59529069  0.62628436  0.23676356     0.38700
H179        H  0.46707926  0.59786444  0.26416569     0.41900
H180        H  0.39968210  0.52955064  0.27058861     0.36600
H181        H  0.36260775  0.40703981  0.22957879     0.42800
H182        H  0.40168661  0.36759553  0.22934942     0.39200
H183        H  0.57659894  0.65004514  0.24598894     0.44100
H184        H  0.37236389  0.50791205  0.24380451     0.42800
H185        H  0.42067617  0.34433378  0.23812301     0.43000
H186        H  0.58411648  0.45516335  0.26425602     0.43300
O187        O  0.78706373  0.47026899  0.00464339    -0.75600
O188        O  0.84873217  0.51447530  0.00210732    -0.54500
C189        C  0.81957662  0.47895877  0.49986178     0.78200
O190        O  0.72315764  0.56178659  0.41747504    -0.60200
O191        O  0.69061946  0.57128424  0.45494535    -0.53200
C192        C  0.69533796  0.56500445  0.42700887     0.70200
O193        O  0.83278032  0.56245648  0.41481993    -0.74700
O194        O  0.87374336  0.56836672  0.45197738    -0.55300
C195        C  0.86308046  0.56420128  0.42401232     0.76200
O196        O  0.67893413  0.46982762  0.00852169    -0.59900
O197        O  0.66239647  0.51612172  0.50087937    -0.53000
C198        C  0.65350198  0.48138328  0.50056170     0.72800
Zr199      Zr  0.74620085  0.49619316  0.01135686     2.54700
O200        O  0.71327971  0.43315009  0.48599547    -0.80400
O201        O  0.73134371  0.46363669  0.05993468    -0.93800
Zr202      Zr  0.78028770  0.56549151  0.43720961     2.64700
O203        O  0.75267934  0.50983113  0.40485204    -0.98800
O204        O  0.80228948  0.60734904  0.39372084    -0.80900
O205        O  0.79291137  0.52908017  0.47151427    -0.84200
O206        O  0.73149696  0.53020872  0.47186535    -2.18900
O207        O  0.73110087  0.56509676  0.08717703    -0.67600
O208        O  0.69120469  0.56483287  0.05156563    -0.52200
C209        C  0.69930695  0.56045222  0.07889304     0.71200
O210        O  0.89449787  0.67789466  0.49483257    -0.60500
O211        O  0.90646642  0.62970062  0.49892530    -0.52500
C212        C  0.91616672  0.66622435  0.99575255     0.73000
O213        O  0.78336920  0.67933071  0.49453269    -0.71900
O214        O  0.72293264  0.63268587  0.50185630    -0.50600
C215        C  0.74618431  0.66623469  0.99619651     0.74400
O216        O  0.83932504  0.57364696  0.08716907    -0.67200
O217        O  0.87475070  0.56881764  0.04942660    -0.54400
C218        C  0.86545563  0.56783924  0.07762768     0.72700
Zr219      Zr  0.79252924  0.58597192  0.06510483     2.77500
O220        O  0.82517349  0.65204599  0.07885365    -0.98000
O221        O  0.78994960  0.58395239  0.12062296    -0.78800
Zr222      Zr  0.82570104  0.65282065  0.49413806     2.70100
O223        O  0.85395813  0.70825589  0.02532159    -0.80100
O224        O  0.84515744  0.69051718  0.44803070    -0.99100
Zr225      Zr  0.84644172  0.57214980  0.50003232     2.21500
Zr226      Zr  0.72315691  0.57402643  0.50150492     2.11100
O227        O  0.77591711  0.61914275  0.03066173    -2.47800
O228        O  0.84051543  0.61894243  0.02923213    -0.79800
O229        O  0.73805547  0.54044902  0.03939465    -0.72000
O230        O  0.83399464  0.60866651  0.46505285    -2.33000
O231        O  0.79952099  0.53922140  0.03859570    -2.29200
O232        O  0.77187293  0.60980108  0.46575303    -0.73800
H233        H  0.70957324  0.51380595  0.46016457     0.78200
H234        H  0.85477559  0.62204861  0.45130230     0.79300
H235        H  0.77004986  0.63578444  0.04183684     0.81500
H236        H  0.80474283  0.52374149  0.05166175     0.79100
H237        H  0.79697630  0.59057350  0.37588986     0.42200
H238        H  0.85185338  0.71595136  0.45508103     0.41100
H239        H  0.85606661  0.72837788  0.01188872     0.40800
H240        H  0.80785314  0.65502717  0.09267800     0.38700
H241        H  0.77521136  0.55708162  0.12577199     0.41900
H242        H  0.74075880  0.48377371  0.07548380     0.36600
H243        H  0.71151633  0.43698384  0.46395321     0.42800
H244        H  0.75497063  0.49087617  0.41684590     0.39200
H245        H  0.84581488  0.65526227  0.09217446     0.44100
H246        H  0.74843746  0.45344781  0.06119396     0.42800
H247        H  0.72558843  0.50086587  0.40478981     0.43000
H248        H  0.86925928  0.69255328  0.44228690     0.43300
O249        O  0.67966035  0.20836396  0.99517723    -0.75600
O250        O  0.66402434  0.14710485  0.99776888    -0.54500
C251        C  0.65614911  0.17777424  0.49631094     0.78200
O252        O  0.83853041  0.26290373  0.41058805    -0.60200
O253        O  0.87727106  0.30404656  0.44648891    -0.53200
C254        C  0.86626483  0.29469740  0.41870613     0.70200
O255        O  0.72998371  0.15970462  0.41430546    -0.74700
O256        O  0.68954330  0.12499772  0.45194079    -0.55300
C257        C  0.69790459  0.13438918  0.42399638     0.76200
O258        O  0.78879003  0.31782088  0.48789992    -0.59900
O259        O  0.84994137  0.33442454  0.49286170    -0.53000
C260        C  0.82358040  0.34235855  0.48994262     0.72800
Zr261      Zr  0.74697615  0.24907765  0.99317360     2.54700
O262        O  0.72578764  0.26511372  0.44389848    -0.80400
O263        O  0.72745664  0.28177408  0.02849713    -0.93800
Zr264      Zr  0.79094904  0.20464473  0.43398451     2.64700
O265        O  0.78043001  0.20448548  0.37930209    -0.98800
O266        O  0.82206430  0.17156435  0.41530946    -0.80900
O267        O  0.73824516  0.19720073  0.46202802    -0.84200
O268        O  0.79986653  0.25928313  0.46011388    -2.18900
O269        O  0.83269877  0.27506391  0.08124491    -0.67600
O270        O  0.87327527  0.31040070  0.04379222    -0.52200
C271        C  0.86151598  0.30498648  0.07155824     0.71200
O272        O  0.77997347  0.10133654  0.50367493    -0.60500
O273        O  0.71961222  0.08879126  0.49970236    -0.52500
C274        C  0.74872682  0.08016582  0.00355688     0.73000
O275        O  0.89301399  0.21209117  0.50289220    -0.71900
O276        O  0.90776392  0.27323638  0.49782528    -0.50600
C277        C  0.91796368  0.25058134  0.00044741     0.74400
O278        O  0.72781883  0.16291235  0.08308752    -0.67200
O279        O  0.69135309  0.12166527  0.04629706    -0.54400
C280        C  0.69818795  0.13303454  0.07416405     0.72700
Zr281      Zr  0.78505746  0.21453861  0.06142375     2.77500
O282        O  0.81486617  0.19352744  0.09782988    -0.98000
O283        O  0.75943742  0.23331420  0.10353064    -0.78800
Zr284      Zr  0.82424857  0.17028532  0.50331858     2.70100
O285        O  0.85054414  0.15624463  0.04676932    -0.80100
O286        O  0.85177136  0.14455193  0.46845253    -0.99100
Zr287      Zr  0.72247597  0.14939621  0.49887621     2.21500
Zr288      Zr  0.84939903  0.27435647  0.49513925     2.11100
O289        O  0.83757815  0.22620168  0.03136813    -2.47800
O290        O  0.77408863  0.16118435  0.03278692    -0.79800
O291        O  0.79654811  0.26353968  0.02726999    -0.72000
O292        O  0.77424623  0.15547751  0.46902364    -2.33000
O293        O  0.73454458  0.20140326  0.02867104    -2.29200
O294        O  0.84037982  0.21980847  0.46794931    -0.73800
H295        H  0.80505316  0.27957359  0.44652481     0.78200
H296        H  0.76744643  0.13282277  0.45768238     0.79300
H297        H  0.85905439  0.23414655  0.04432112     0.81500
H298        H  0.71289635  0.19630432  0.04064722     0.79100
H299        H  0.84523060  0.19117559  0.40560447     0.42200
H300        H  0.86284688  0.13355598  0.48190488     0.41100
H301        H  0.82953217  0.14572062  0.06143839     0.40800
H302        H  0.84182036  0.20776349  0.09297787     0.38700
H303        H  0.73991161  0.23708037  0.09408624     0.41900
H304        H  0.72636917  0.27056291  0.04861063     0.36600
H305        H  0.72013158  0.28476545  0.45036551     0.42800
H306        H  0.77582616  0.22546346  0.37591828     0.39200
H307        H  0.81276684  0.20407212  0.11759797     0.44100
H308        H  0.70120680  0.27333937  0.02324251     0.42800
H309        H  0.80478075  0.21229552  0.36943001     0.43000
H310        H  0.83036285  0.12276366  0.45866029     0.43300
O311        O  0.31826054  0.79158952  0.00141464    -0.75600
O312        O  0.33436298  0.85306961  0.00337010    -0.54500
C313        C  0.34209719  0.82477386  0.50011357     0.78200
O314        O  0.15883884  0.72888371  0.41843819    -0.60200
O315        O  0.12001364  0.69211805  0.45602039    -0.53200
C316        C  0.12962102  0.69918879  0.42788599     0.70200
O317        O  0.27174909  0.83436026  0.41772116    -0.74700
O318        O  0.30929851  0.87330358  0.45496767    -0.55300
C319        C  0.30271170  0.86222381  0.42710041     0.76200
O320        O  0.21003055  0.68234403  0.00339709    -0.59900
O321        O  0.15029336  0.66572985  0.50097326    -0.58400
C322        C  0.17691300  0.65799877  0.50043063     0.72800
Zr323      Zr  0.25050765  0.75006225  0.00406513     2.54700
O324        O  0.28021259  0.72337767  0.47491029    -0.80400
O325        O  0.27459503  0.72899208  0.04522449    -0.93800
Zr326      Zr  0.21231617  0.78593768  0.43851599     2.64700
O327        O  0.22832433  0.75916771  0.39538044    -0.98800
O328        O  0.18965849  0.81572106  0.40361033    -0.80900
O329        O  0.26261617  0.79807451  0.47137752    -0.84200
O330        O  0.20144670  0.73631239  0.47156361    -2.18900
O331        O  0.16425825  0.73091190  0.08714783    -0.67600
O332        O  0.12311459  0.69307408  0.05074128    -0.52200
C333        C  0.13578599  0.70043964  0.07816164     0.71200
O334        O  0.21435251  0.89602867  0.49910875    -0.60500
O335        O  0.27530005  0.90981665  0.49942442    -0.52500
C336        C  0.24815855  0.91862447  0.00465519     0.73000
O337        O  0.10252887  0.78323404  0.49589236    -0.71900
O338        O  0.08999319  0.72274267  0.49921366    -0.50600
C339        C  0.07867489  0.74878908  0.99832859     0.74400
O340        O  0.26632941  0.84077746  0.08857783    -0.67200
O341        O  0.30532929  0.87923840  0.05155593    -0.54400
C342        C  0.29697950  0.86899081  0.07951090     0.72700
Zr343      Zr  0.20962157  0.79050370  0.06635536     2.77500
O344        O  0.17942045  0.81825407  0.09573199    -0.98000
O345        O  0.22750639  0.77435380  0.11414268    -0.78800
Zr346      Zr  0.17146121  0.82727489  0.49816699     2.70100
O347        O  0.14347463  0.84767953  0.04224306    -0.80100
O348        O  0.15447776  0.84715944  0.45175748    -0.99100
Zr349      Zr  0.27474521  0.85076385  0.50204577     2.21500
Zr350      Zr  0.14949067  0.72494350  0.50268701     2.11100
O351        O  0.15766092  0.77623202  0.03491199    -2.47800
O352        O  0.22212644  0.84116106  0.03452795    -0.79800
O353        O  0.19937909  0.73863916  0.03562945    -0.72000
O354        O  0.22447371  0.83895334  0.46824036    -2.33000
O355        O  0.26168399  0.80048511  0.03640472    -2.29200
O356        O  0.16013250  0.77423287  0.46860095    -0.73800
H357        H  0.19622847  0.71469949  0.45933980     0.78200
H358        H  0.23163596  0.86011005  0.45503452     0.79300
H359        H  0.13584348  0.76949005  0.04728750     0.81500
H360        H  0.28289715  0.80610444  0.04892715     0.79100
H361        H  0.21147744  0.84072516  0.39962821     0.42200
H362        H  0.13183047  0.82459222  0.44424336     0.41100
H363        H  0.14002721  0.86732761  0.03259050     0.40800
H364        H  0.16116306  0.79771308  0.10878730     0.38700
H365        H  0.23789078  0.75827416  0.10799210     0.41900
H366        H  0.27759347  0.70866895  0.03605647     0.36600
H367        H  0.27692025  0.72964253  0.45383708     0.42800
H368        H  0.22172760  0.73361355  0.40169584     0.39200
H369        H  0.19887461  0.83574301  0.11004411     0.44100
H370        H  0.25338740  0.71615501  0.05952506     0.42800
H371        H  0.21046700  0.75560436  0.37898285     0.43000
H372        H  0.14549449  0.86407242  0.45888532     0.43300
O373        O  0.56389281  0.83372616  0.41619816    -0.75600
O374        O  0.56793329  0.87426943  0.45355883    -0.54500
C375        C  0.56387892  0.86341773  0.42543922     0.78200
O376        O  0.46512053  0.68231837  0.00006297    -0.60200
O377        O  0.51349034  0.66119768  0.50347250    -0.53200
C378        C  0.47935069  0.65337057  0.50681166     0.70200
O379        O  0.46967118  0.79224716  0.99623609    -0.74700
O380        O  0.51586588  0.85312198  0.00002422    -0.55300
C381        C  0.47796903  0.81937239  0.50122809     0.76200
O382        O  0.56242418  0.72462268  0.41625165    -0.59900
O383        O  0.56630630  0.68775567  0.45299280    -0.53000
C384        C  0.56140587  0.69455362  0.42532234     0.72800
Zr385      Zr  0.57099536  0.78308176  0.43760156     2.54700
O386        O  0.52502183  0.76003877  0.39684310    -0.80400
O387        O  0.62290454  0.80684771  0.40181427    -0.93800
Zr388      Zr  0.49440545  0.74971127  0.99693245     2.64700
O389        O  0.44701224  0.71580786  0.46431043    -0.98800
O390        O  0.44206086  0.72799780  0.03214227    -0.80900
O391        O  0.53170970  0.79470752  0.46985591    -0.84200
O392        O  0.53231987  0.73222003  0.46979284    -2.18900
O393        O  0.67751438  0.78099129  0.49865404    -0.67600
O394        O  0.63052695  0.71982288  0.49991661    -0.52200
C395        C  0.66310129  0.74548227  0.99651605     0.71200
O396        O  0.56141997  0.83291705  0.08545795    -0.60500
O397        O  0.56450688  0.87348559  0.04902790    -0.52500
C398        C  0.55942395  0.86142251  0.07659869     0.73000
O399        O  0.55990358  0.72380923  0.08189993    -0.71900
O400        O  0.56519478  0.68827201  0.04455507    -0.50600
C401        C  0.56004413  0.69429281  0.07243340     0.74400
O402        O  0.67691689  0.89306978  0.50130885    -0.67200
O403        O  0.62925314  0.90606793  0.50318046    -0.54400
C404        C  0.66644170  0.91818352  0.00279730     0.72700
Zr405      Zr  0.65185812  0.82413552  0.49924525     2.77500
O406        O  0.69034466  0.84308767  0.04768357    -0.98000
O407        O  0.69821372  0.84905348  0.45868688    -0.78800
Zr408      Zr  0.57056310  0.78418591  0.06321127     2.70100
O409        O  0.62528967  0.81151039  0.09596972    -0.80100
O410        O  0.53348209  0.76445992  0.10984488    -0.99100
Zr411      Zr  0.57156731  0.84625403  0.50159190     2.21500
Zr412      Zr  0.57251431  0.72078197  0.50075580     2.11100
O413        O  0.61066612  0.77240565  0.03255166    -2.47800
O414        O  0.61169968  0.83729496  0.03381291    -0.79800
O415        O  0.61170900  0.77179392  0.46784958    -0.72000
O416        O  0.53223680  0.79755358  0.03142080    -2.33000
O417        O  0.61123824  0.83532037  0.46830238    -2.29200
O418        O  0.53011464  0.73476398  0.03035275    -0.73800
H419        H  0.51588209  0.71033967  0.45801284     0.78200
H420        H  0.51558647  0.80250398  0.04345453     0.79300
H421        H  0.62480959  0.76485328  0.04511826     0.81500
H422        H  0.62572647  0.85684627  0.45556038     0.79100
H423        H  0.41995566  0.71943445  0.01886348     0.42200
H424        H  0.51303569  0.73856478  0.10604464     0.41100
H425        H  0.63119481  0.83765979  0.09924597     0.40800
H426        H  0.71621686  0.85678902  0.03979559     0.38700
H427        H  0.69438361  0.82677285  0.44705500     0.41900
H428        H  0.63823930  0.83382839  0.40664989     0.36600
H429        H  0.50301872  0.76000728  0.40583842     0.42800
H430        H  0.45437399  0.70077356  0.45145209     0.39200
H431        H  0.68662762  0.86262758  0.05755115     0.44100
H432        H  0.61154680  0.80592359  0.38179125     0.42800
H433        H  0.42454621  0.69708798  0.47539315     0.43000
H434        H  0.54955947  0.76217381  0.12530125     0.43300
O435        O  0.20563591  0.52699882  0.99630674    -0.75600
O436        O  0.14427889  0.48261876  0.99913402    -0.54500
C437        C  0.17386112  0.51738576  0.49574013     0.78200
O438        O  0.26333265  0.42619927  0.41284255    -0.60200
O439        O  0.30450097  0.42972963  0.44882090    -0.53200
C440        C  0.29466113  0.43007853  0.42105349     0.70200
O441        O  0.16486570  0.43994667  0.41584190    -0.74700
O442        O  0.12595603  0.43766094  0.45345186    -0.55300
C443        C  0.13760681  0.44361384  0.42564611     0.76200
O444        O  0.31490363  0.52735753  0.00189336    -0.59900
O445        O  0.33345140  0.48146256  0.50316196    -0.53000
C446        C  0.34132765  0.51543960  0.50816870     0.72800
Zr447      Zr  0.24764513  0.50140982  0.99788890     2.54700
O448        O  0.27943696  0.54331533  0.45597901    -0.80400
O449        O  0.27283806  0.55496524  0.03242701    -0.93800
Zr450      Zr  0.20775888  0.42128969  0.43556284     2.64700
O451        O  0.22470266  0.45139796  0.38576638    -0.98800
O452        O  0.17152592  0.36430818  0.40582492    -0.80900
O453        O  0.19896685  0.46268726  0.46751966    -0.84200
O454        O  0.26090516  0.46254840  0.46536974    -2.18900
O455        O  0.26962088  0.43590797  0.08312749    -0.67600
O456        O  0.30762270  0.43813589  0.04465295    -0.52200
C457        C  0.30100395  0.44109152  0.07303882     0.71200
O458        O  0.10109434  0.31830982  0.50175235    -0.60500
O459        O  0.08808329  0.36607980  0.50082837    -0.52500
C460        C  0.07867939  0.33141126  0.00365370     0.73000
O461        O  0.21149466  0.31738833  0.49897582    -0.71900
O462        O  0.27264011  0.36443537  0.49771099    -0.50600
C463        C  0.24940526  0.33278116  0.99515322     0.74400
O464        O  0.16084012  0.42749444  0.08591171    -0.67200
O465        O  0.12253936  0.42995751  0.04999759    -0.54400
C466        C  0.13297400  0.43065235  0.07776411     0.72700
Zr467      Zr  0.21037875  0.42247203  0.06151455     2.77500
O468        O  0.18245459  0.36179433  0.08623806    -0.98000
O469        O  0.22004470  0.45093282  0.11186450    -0.78800
Zr470      Zr  0.16965399  0.34407511  0.49892356     2.70100
O471        O  0.15346119  0.29995879  0.04081582    -0.80100
O472        O  0.14586418  0.29875083  0.45728475    -0.99100
Zr473      Zr  0.14829133  0.42472103  0.50051068     2.21500
Zr474      Zr  0.27342227  0.42368515  0.49752492     2.11100
O475        O  0.22285413  0.38342928  0.03020693    -2.47800
O476        O  0.15807522  0.38359005  0.03131274    -0.79800
O477        O  0.25460540  0.45987739  0.02692557    -0.72000
O478        O  0.15645883  0.38290081  0.46743228    -2.33000
O479        O  0.19901813  0.46402278  0.03215281    -2.29200
O480        O  0.22098663  0.38255369  0.46635123    -0.73800
H481        H  0.28173334  0.47825636  0.45285861     0.78200
H482        H  0.13440774  0.36814548  0.45524033     0.79300
H483        H  0.23037600  0.36903892  0.04249445     0.81500
H484        H  0.19426155  0.48015804  0.04506856     0.79100
H485        H  0.16292475  0.37238730  0.38791966     0.42200
H486        H  0.16837452  0.30093553  0.44731035     0.41100
H487        H  0.13676416  0.27519818  0.03149956     0.40800
H488        H  0.19115994  0.36760866  0.10761176     0.38700
H489        H  0.22584152  0.47690451  0.10805681     0.41900
H490        H  0.25210691  0.54983209  0.04655293     0.36600
H491        H  0.30251308  0.56458166  0.46441764     0.42800
H492        H  0.25053280  0.47264317  0.38766193     0.39200
H493        H  0.15551080  0.35344065  0.08739122     0.44100
H494        H  0.27562713  0.57590881  0.01967092     0.42800
H495        H  0.22625117  0.43348649  0.37152926     0.43000
H496        H  0.13402771  0.27411717  0.46746053     0.43300
O497        O  0.42890747  0.16633820  0.41175342    -0.75600
O498        O  0.43230093  0.12917695  0.44853124    -0.54500
C499        C  0.43370588  0.13946352  0.42055612     0.78200
O500        O  0.52464490  0.32095374  0.49723622    -0.60200
O501        O  0.47875438  0.33605141  0.50009500    -0.53200
C502        C  0.51336968  0.34480090  0.49789050     0.70200
O503        O  0.52639805  0.20558420  0.99966436    -0.74700
O504        O  0.48137005  0.14404165  0.99964024    -0.55300
C505        C  0.51744988  0.17925656  0.50002339     0.76200
O506        O  0.42204484  0.27023099  0.41565341    -0.59900
O507        O  0.41991026  0.30675391  0.45394157    -0.53000
C508        C  0.42238918  0.29979829  0.42563580     0.72800
Zr509      Zr  0.41914539  0.21393484  0.43578902     2.54700
O510        O  0.46406447  0.24173547  0.39440443    -0.80400
O511        O  0.36587463  0.18502905  0.40150950    -0.93800
Zr512      Zr  0.50134242  0.24818324  0.99818521     2.64700
O513        O  0.54147660  0.27154268  0.45504061    -0.98800
O514        O  0.55099514  0.27604106  0.03581460    -0.80900
O515        O  0.46058156  0.20320790  0.46557820    -0.84200
O516        O  0.45901923  0.26535756  0.46715431    -2.18900
O517        O  0.31395495  0.21241854  0.50049155    -0.67600
O518        O  0.36015393  0.27390415  0.50171752    -0.52200
C519        C  0.33310310  0.25165787  0.00039608     0.71200
O520        O  0.43585346  0.16372441  0.08459427    -0.60500
O521        O  0.43548815  0.12487605  0.04740977    -0.52500
C522        C  0.43993902  0.13645607  0.07529048     0.73000
O523        O  0.43938405  0.27071218  0.08298684    -0.71900
O524        O  0.43159611  0.30593437  0.04714750    -0.50600
C525        C  0.43898504  0.30006375  0.07430702     0.74400
O526        O  0.31789486  0.10331116  0.50124928    -0.67200
O527        O  0.36646498  0.09161602  0.49918104    -0.54400
C528        C  0.33105762  0.07942360  0.00384679     0.72700
Zr529      Zr  0.34208572  0.17172741  0.50024421     2.77500
O530        O  0.29389319  0.14878859  0.03902152    -0.98000
O531        O  0.29723423  0.14774465  0.45868051    -0.78800
Zr532      Zr  0.42196863  0.20936672  0.06300304     2.70100
O533        O  0.36027657  0.17770200  0.08633802    -0.80100
O534        O  0.43991910  0.22546400  0.11630282    -0.99100
Zr535      Zr  0.42411646  0.15185272  0.49826873     2.21500
Zr536      Zr  0.41969801  0.27555445  0.50080688     2.11100
O537        O  0.38392967  0.22323918  0.03238155    -2.47800
O538        O  0.38265430  0.15758621  0.03208352    -0.79800
O539        O  0.37949244  0.22419205  0.46857357    -0.72000
O540        O  0.46337655  0.19936956  0.03171019    -2.33000
O541        O  0.38206174  0.16145419  0.46717658    -2.29200
O542        O  0.46347348  0.26018949  0.03165576    -0.73800
H543        H  0.47403730  0.28702018  0.45470993     0.78200
H544        H  0.48041475  0.19532290  0.04377334     0.79300
H545        H  0.36984160  0.23092007  0.04515566     0.81500
H546        H  0.36741282  0.13981349  0.45441383     0.79100
H547        H  0.53817356  0.27587405  0.05498727     0.42200
H548        H  0.46743368  0.23747816  0.11656417     0.41100
H549        H  0.36152694  0.19491197  0.10272635     0.40800
H550        H  0.27061798  0.13490313  0.02705846     0.38700
H551        H  0.30507147  0.16941979  0.44504446     0.41900
H552        H  0.37693727  0.19188193  0.38085504     0.36600
H553        H  0.48309444  0.23444903  0.39828097     0.42800
H554        H  0.52910887  0.27744177  0.43851315     0.39200
H555        H  0.29582288  0.12924397  0.05041463     0.44100
H556        H  0.35318075  0.19971952  0.40451067     0.42800
H557        H  0.56309130  0.29591765  0.46100355     0.43000
H558        H  0.43070869  0.20160712  0.12733282     0.43300
C559        C  0.27826964  0.29920334  0.47146165    -0.02100
C560        C  0.26735191  0.30855849  0.99291916     0.07600
C561        C  0.24872396  0.26944292  0.99855628    -0.02200
C562        C  0.26926222  0.25007560  0.00032893    -0.02200
C563        C  0.30911013  0.27013485  0.99960979     0.07700
C564        C  0.29615118  0.27786518  0.47190725    -0.02400
Br565      Br  0.31793095  0.27134322  0.43520890    -0.01000
Br566      Br  0.27975612  0.32563802  0.43502555    -0.01000
Br567      Br  0.24181932  0.19644039  0.00528027    -0.01000
Br568      Br  0.19513633  0.24148510  0.00272133    -0.01000
C569        C  0.42190358  0.60825634  0.53467913    -0.02100
C570        C  0.44892658  0.61417635  0.51231767     0.07600
C571        C  0.44499078  0.58296377  0.49565470    -0.02200
C572        C  0.41165370  0.54795520  0.49826228    -0.02200
C573        C  0.38075735  0.54546353  0.51444931     0.07700
C574        C  0.38740335  0.57489274  0.53482120    -0.02400
Br575      Br  0.35013066  0.56955874  0.56415911    -0.01000
Br576      Br  0.43322341  0.64502713  0.56660904    -0.01000
Br577      Br  0.39972292  0.51627350  0.95423238    -0.01000
Br578      Br  0.47171286  0.60305139  0.94658895    -0.01000
C579        C  0.28188130  0.98019230  0.47152713    -0.02100
C580        C  0.26207178  0.95933429  0.00303800     0.07600
C581        C  0.25992201  0.97986458  0.02808740    -0.02200
C582        C  0.28071972  0.01950566  0.02792032    -0.02200
C583        C  0.30419747  0.03849067  0.00297216     0.07700
C584        C  0.30334289  0.01953338  0.47238737    -0.02400
Br585      Br  0.33138583  0.04580968  0.43715060    -0.01000
Br586      Br  0.27576989  0.95345793  0.43374337    -0.01000
Br587      Br  0.27943861  0.04756905  0.06270647    -0.01000
Br588      Br  0.22946787  0.95370270  0.06273747    -0.01000
C589        C  0.13879596  0.58766392  0.01372972    -0.02100
C590        C  0.16869117  0.61887219  0.49498902     0.07600
C591        C  0.19007051  0.61269291  0.47297616    -0.02200
C592        C  0.18983843  0.57859944  0.47195387    -0.02200
C593        C  0.16617414  0.54894164  0.49150769     0.07700
C594        C  0.13585052  0.55196602  0.01069888    -0.02400
Br595      Br  0.09346218  0.50865772  0.02785517    -0.01000
Br596      Br  0.10529149  0.59407814  0.04047802    -0.01000
Br597      Br  0.22091308  0.57233844  0.44213960    -0.01000
Br598      Br  0.21825310  0.65018018  0.44265818    -0.01000
C599        C  0.44405507  0.85614224  0.01930290    -0.02100
C600        C  0.44742839  0.82823255  0.49827905     0.07600
C601        C  0.42222659  0.81229707  0.47376953    -0.02200
C602        C  0.38929949  0.81422496  0.47312370    -0.02200
C603        C  0.38125464  0.83275889  0.49659338     0.07700
C604        C  0.40971807  0.85602047  0.02012981    -0.02400
Br605      Br  0.39970980  0.88095478  0.05290743    -0.01000
Br606      Br  0.47945283  0.87921407  0.05189168    -0.01000
Br607      Br  0.35474195  0.79057944  0.43999895    -0.01000
Br608      Br  0.43253392  0.78716002  0.44092290    -0.01000
C609        C  0.71912289  0.01655319  0.47419591    -0.02100
C610        C  0.73502324  0.03909796  0.00367518     0.07600
C611        C  0.72591508  0.01883755  0.03119466    -0.02200
C612        C  0.70641175  0.97915973  0.03076967    -0.02200
C613        C  0.69397276  0.95930854  0.00293307     0.07700
C614        C  0.69842822  0.97696286  0.47446891    -0.02400
Br615      Br  0.67911061  0.94939639  0.43691757    -0.01000
Br616      Br  0.73382244  0.04268676  0.43594743    -0.01000
Br617      Br  0.69538445  0.95174641  0.06836700    -0.01000
Br618      Br  0.73887283  0.04554191  0.06944056    -0.01000
C619        C  0.97756170  0.27324696  0.02997581    -0.02100
C620        C  0.95877409  0.26400816  0.00174184     0.07600
C621        C  0.97787220  0.26990831  0.47348808    -0.02200
C622        C  0.01723492  0.29246422  0.47371200    -0.02200
C623        C  0.03791455  0.30405201  0.00360437     0.07700
C624        C  0.01702726  0.29347695  0.03091326    -0.02400
Br625      Br  0.04249464  0.30706061  0.06943635    -0.01000
Br626      Br  0.94895911  0.25680459  0.06717600    -0.01000
Br627      Br  0.04425694  0.30871987  0.43582394    -0.01000
Br628      Br  0.95161964  0.24851512  0.43597209    -0.01000
C629        C  0.55185601  0.14423620  0.48522841    -0.02100
C630        C  0.54882141  0.17127036  0.50319995     0.07600
C631        C  0.57428014  0.18182692  0.02586073    -0.02200
C632        C  0.60845256  0.18248955  0.02498713    -0.02200
C633        C  0.61730078  0.17084780  0.50080853     0.07700
C634        C  0.58646733  0.14488912  0.48323578    -0.02400
Br635      Br  0.59174287  0.11115424  0.45585993    -0.01000
Br636      Br  0.50868619  0.10516977  0.46473737    -0.01000
Br637      Br  0.64407870  0.20712886  0.05750806    -0.01000
Br638      Br  0.56537545  0.20822261  0.05819949    -0.01000
C639        C  0.97837384  0.68657614  0.97120757    -0.02100
C640        C  0.95743867  0.69300636  0.99345986     0.07600
C641        C  0.97854057  0.71886157  0.51643795    -0.02200
C642        C  0.01822881  0.73960229  0.51587642    -0.02200
C643        C  0.03734432  0.73387812  0.99460661     0.07700
C644        C  0.01774227  0.70710220  0.97154628    -0.02400
Br645      Br  0.04486202  0.69962615  0.93914688    -0.01000
Br646      Br  0.95299630  0.64955991  0.93967744    -0.01000
Br647      Br  0.04510273  0.77681217  0.54681087    -0.01000
Br648      Br  0.95189662  0.72664233  0.54911446    -0.01000
C649        C  0.72971183  0.71005749  0.47237526    -0.02100
C650        C  0.73218262  0.69350059  0.99624840     0.07600
C651        C  0.71960803  0.70116003  0.02381494    -0.02200
C652        C  0.69737826  0.71828709  0.02379532    -0.02200
C653        C  0.68998329  0.73104635  0.99638280     0.07700
C654        C  0.71041762  0.73028899  0.47312344    -0.02400
Br655      Br  0.70703638  0.75458065  0.43697702    -0.01000
Br656      Br  0.74728298  0.70136656  0.43415588    -0.01000
Br657      Br  0.67647630  0.72378372  0.06149981    -0.01000
Br658      Br  0.73558826  0.69066063  0.06178426    -0.01000
C659        C  0.81373932  0.42570018  0.46890158    -0.02100
C660        C  0.82824136  0.44855627  0.49494788     0.07600
C661        C  0.84810778  0.44027826  0.51654853    -0.02200
C662        C  0.84988124  0.40702696  0.51365825    -0.02200
C663        C  0.83208325  0.38207208  0.48903879     0.07700
C664        C  0.81575135  0.39285706  0.46593564    -0.02400
Br665      Br  0.79532862  0.36245547  0.43004875    -0.01000
Br666      Br  0.79127538  0.43981924  0.43688045    -0.01000
Br667      Br  0.87453429  0.39492387  0.54458425    -0.01000
Br668      Br  0.87088089  0.47325714  0.55095244    -0.01000
C669        C  0.58572591  0.44313234  0.01955156    -0.02100
C670        C  0.61369633  0.45176417  0.49644529     0.07600
C671        C  0.60387447  0.42750007  0.47105497    -0.02200
C672        C  0.56930846  0.39396960  0.47030223    -0.02200
C673        C  0.54362688  0.38462661  0.49459431     0.07700
C674        C  0.55152565  0.40880082  0.01736136    -0.02400
Br675      Br  0.50998690  0.40081955  0.04250063    -0.01000
Br676      Br  0.59156601  0.48064049  0.04891145    -0.01000
Br677      Br  0.55679159  0.36094173  0.43547646    -0.01000
Br678      Br  0.63796593  0.44027008  0.43714026    -0.01000
C679        C  0.48477622  0.34892125  0.10927129    -0.02100
C680        C  0.44815013  0.32888823  0.09770252     0.07600
C681        C  0.41970528  0.33368352  0.11076933    -0.02200
C682        C  0.42777453  0.35793741  0.13582996    -0.02200
C683        C  0.46489599  0.38003679  0.14580736     0.07700
C684        C  0.49344599  0.37583057  0.13229287    -0.02400
Br685      Br  0.54421836  0.40660548  0.14561613    -0.01000
Br686      Br  0.52296888  0.33924921  0.09381617    -0.01000
Br687      Br  0.38787206  0.35968293  0.15735629    -0.01000
Br688      Br  0.36952011  0.30585776  0.09513891    -0.01000
C689        C  0.42081969  0.34368184  0.35035178    -0.02100
C690        C  0.45286069  0.37945194  0.35338850     0.07600
C691        C  0.47205543  0.38985265  0.38142515    -0.02200
C692        C  0.45835906  0.36566060  0.40644729    -0.02200
C693        C  0.42879081  0.32856417  0.40258920     0.07700
C694        C  0.40968436  0.31795836  0.37445641    -0.02400
Br695      Br  0.36695888  0.26866789  0.36904850    -0.01000
Br696      Br  0.39095658  0.32965982  0.31376869    -0.01000
Br697      Br  0.48043184  0.38475108  0.44569014    -0.01000
Br698      Br  0.51969606  0.43534151  0.38506260    -0.01000
C699        C  0.62356589  0.55815416  0.12870283    -0.02100
C700        C  0.61776971  0.53031547  0.14984747     0.07600
C701        C  0.63872963  0.51212521  0.14780971    -0.02200
C702        C  0.66433705  0.52079149  0.12379675    -0.02200
C703        C  0.67014609  0.54886822  0.10250477     0.07700
C704        C  0.64881722  0.56675397  0.10465461    -0.02400
Br705      Br  0.65392212  0.60369954  0.07530769    -0.01000
Br706      Br  0.60019778  0.58786774  0.13447749    -0.01000
Br707      Br  0.68868500  0.49159472  0.11898007    -0.01000
Br708      Br  0.63275736  0.47567388  0.17800443    -0.01000
C709        C  0.65177126  0.55905656  0.34984610    -0.02100
C710        C  0.61278190  0.54127828  0.35659162     0.07600
C711        C  0.60237460  0.53855836  0.38793803    -0.02200
C712        C  0.62850905  0.54467779  0.41108230    -0.02200
C713        C  0.66686589  0.56051288  0.40387706     0.07700
C714        C  0.67815807  0.57133687  0.37353808    -0.02400
Br715      Br  0.72982902  0.60714141  0.36458778    -0.01000
Br716      Br  0.67204153  0.56888573  0.30884957    -0.01000
Br717      Br  0.61027654  0.53018052  0.45227109    -0.01000
Br718      Br  0.55450819  0.53180453  0.40079159    -0.01000
C719        C  0.51615352  0.60260226  0.11622667    -0.02100
C720        C  0.53555540  0.61427989  0.14430140     0.07600
C721        C  0.56593659  0.65126721  0.14690573    -0.02200
C722        C  0.57423676  0.67705689  0.12319034    -0.02200
C723        C  0.55381883  0.66578235  0.09575610     0.07700
C724        C  0.52626957  0.62784402  0.09179134    -0.02400
Br725      Br  0.50217636  0.60954573  0.05301354    -0.01000
Br726      Br  0.47442586  0.55249365  0.11084761    -0.01000
Br727      Br  0.61574766  0.72746338  0.12756314    -0.01000
Br728      Br  0.59934938  0.66621896  0.18122269    -0.01000
C729        C  0.50872998  0.62621956  0.36198032    -0.02100
C730        C  0.53446922  0.61546614  0.35258437     0.07600
C731        C  0.56923618  0.63037072  0.36727310    -0.02200
C732        C  0.57757755  0.65480220  0.39229165    -0.02200
C733        C  0.55155430  0.66516855  0.40203302     0.07700
C734        C  0.51666937  0.64992006  0.38733663    -0.02400
Br735      Br  0.47868483  0.65958194  0.40301878    -0.01000
Br736      Br  0.46386376  0.61071274  0.33866991    -0.01000
Br737      Br  0.62459198  0.67416477  0.41288155    -0.01000
Br738      Br  0.60670344  0.62029748  0.35119328    -0.01000
C739        C  0.38582720  0.44943314  0.11489388    -0.02100
C740        C  0.38771496  0.47097605  0.14079099     0.07600
C741        C  0.36409068  0.48630551  0.14236060    -0.02200
C742        C  0.33606355  0.47676570  0.12035701    -0.02200
C743        C  0.33156577  0.45203080  0.09589352     0.07700
C744        C  0.35702817  0.43872720  0.09330533    -0.02400
Br745      Br  0.35130217  0.40328636  0.06173034    -0.01000
Br746      Br  0.42335776  0.43564915  0.10752472    -0.01000
Br747      Br  0.30526462  0.49947388  0.12421153    -0.01000
Br748      Br  0.37304701  0.52411454  0.17279765    -0.01000
C749        C  0.34049705  0.42261963  0.34828339    -0.02100
C750        C  0.37492983  0.45658903  0.34950797     0.07600
C751        C  0.38210411  0.48163641  0.37407808    -0.02200
C752        C  0.35477251  0.47350608  0.39634555    -0.02200
C753        C  0.32202112  0.43843176  0.39655769     0.07700
C754        C  0.31399286  0.41370754  0.37171173    -0.02400
Br755      Br  0.26587405  0.36875436  0.36878603    -0.01000
Br756      Br  0.33021430  0.38696286  0.31579626    -0.01000
Br757      Br  0.35915438  0.51295318  0.42302662    -0.01000
Br758      Br  0.42904130  0.52756034  0.37788466    -0.01000
C759        C  0.92222973  0.56848162  0.09799796    -0.02100
C760        C  0.88376082  0.55585095  0.10028169     0.07600
C761        C  0.86204112  0.52827840  0.12218946    -0.02200
C762        C  0.87927192  0.51573437  0.14280235    -0.02200
C763        C  0.91799768  0.52938307  0.14107043     0.07700
C764        C  0.93852724  0.55295398  0.11657132    -0.02400
Br765      Br  0.98775774  0.56218045  0.10618067    -0.01000
Br766      Br  0.95372199  0.60992187  0.07173464    -0.01000
Br767      Br  0.84899643  0.47693208  0.17160770    -0.01000
Br768      Br  0.80836980  0.50604814  0.12389001    -0.01000
C769        C  0.91517597  0.57309140  0.35000842    -0.02100
C770        C  0.91868482  0.54082637  0.35156688     0.07600
C771        C  0.90868296  0.51987133  0.37883278    -0.02200
C772        C  0.89539529  0.53108999  0.40385368    -0.02200
C773        C  0.88633732  0.55951688  0.40057637     0.07700
C774        C  0.89707048  0.58113404  0.37370909    -0.02400
Br775      Br  0.88935002  0.62331799  0.37009460    -0.01000
Br776      Br  0.93827383  0.60832274  0.31717586    -0.01000
Br777      Br  0.89113518  0.50776739  0.44260954    -0.01000
Br778      Br  0.91062980  0.47409095  0.38217753    -0.01000
C779        C  0.92100086  0.35511275  0.09603453    -0.02100
C780        C  0.88166252  0.33551278  0.09424467     0.07600
C781        C  0.86120468  0.34587663  0.11403079    -0.02200
C782        C  0.87935133  0.37186541  0.13776334    -0.02200
C783        C  0.91829381  0.38893343  0.14122012     0.07700
C784        C  0.93915635  0.38195120  0.11923142    -0.02400
Br785      Br  0.99277941  0.40904999  0.12048534    -0.01000
Br786      Br  0.95065130  0.34599139  0.06680065    -0.01000
Br787      Br  0.85123392  0.38659009  0.16387423    -0.01000
Br788      Br  0.80916585  0.32856789  0.10608886    -0.01000
C789        C  0.92296497  0.34065087  0.38864146    -0.02100
C790        C  0.88430773  0.32326305  0.39442261     0.07600
C791        C  0.86226395  0.33303755  0.37632123    -0.02200
C792        C  0.87927046  0.36240734  0.35519398    -0.02200
C793        C  0.91768935  0.37916575  0.34925061     0.07700
C794        C  0.93886366  0.36620174  0.36445855    -0.02400
Br795      Br  0.98749611  0.37887883  0.34900979    -0.01000
Br796      Br  0.95414722  0.32886585  0.41277912    -0.01000
Br797      Br  0.84991357  0.37964754  0.33414260    -0.01000
Br798      Br  0.80861029  0.30614967  0.37951392    -0.01000
C799        C  0.07916939  0.42510667  0.14979123    -0.02100
C800        C  0.08112537  0.46030449  0.14902194     0.07600
C801        C  0.10012143  0.48497403  0.12480304    -0.02200
C802        C  0.11884840  0.47565092  0.10292441    -0.02200
C803        C  0.11429924  0.43965880  0.10218029     0.07700
C804        C  0.09619100  0.41503571  0.12656767    -0.02400
Br805      Br  0.09788765  0.36939227  0.12984700    -0.01000
Br806      Br  0.05062367  0.38918749  0.18093605    -0.01000
Br807      Br  0.15765156  0.51479738  0.07877555    -0.01000
Br808      Br  0.10124993  0.53187900  0.12090287    -0.01000
C809        C  0.13923911  0.48031818  0.37894034    -0.02100
C810        C  0.11883797  0.45591405  0.40326991     0.07600
C811        C  0.08049618  0.44418490  0.40627935    -0.02200
C812        C  0.06340130  0.45722834  0.38595519    -0.02200
C813        C  0.08211196  0.47581842  0.35887221     0.07700
C814        C  0.12069376  0.48898313  0.35638609    -0.02400
Br815      Br  0.14934725  0.52271028  0.32378831    -0.01000
Br816      Br  0.19294376  0.50418855  0.37637346    -0.01000
Br817      Br  0.01602855  0.45218530  0.39776404    -0.01000
Br818      Br  0.04941102  0.40703324  0.43598022    -0.01000
C819        C  0.08315824  0.66507554  0.11390742    -0.02100
C820        C  0.11735794  0.67188621  0.10155383     0.07600
C821        C  0.13677650  0.65551234  0.11466816    -0.02200
C822        C  0.12127359  0.63129159  0.13951814    -0.02200
C823        C  0.08567959  0.62214270  0.15022916     0.07700
C824        C  0.06753799  0.64054448  0.13859961    -0.02400
Br825      Br  0.02344769  0.63509430  0.15859417    -0.01000
Br826      Br  0.05911377  0.69117049  0.09815857    -0.01000
Br827      Br  0.15029385  0.61398634  0.16098329    -0.01000
Br828      Br  0.18467847  0.66635114  0.09865979    -0.01000
C829        C  0.09778435  0.68212605  0.37679596    -0.02100
C830        C  0.10650539  0.67087917  0.40443642     0.07600
C831        C  0.09572977  0.63285173  0.40834237    -0.02200
C832        C  0.08101700  0.60759333  0.38375580    -0.02200
C833        C  0.07283863  0.61882100  0.35585906     0.07700
C834        C  0.07985365  0.65594517  0.35308721    -0.02400
Br835      Br  0.06318798  0.67105287  0.31776963    -0.01000
Br836      Br  0.10863370  0.73312212  0.37171729    -0.01000
Br837      Br  0.07583165  0.55867033  0.38809792    -0.01000
Br838      Br  0.10142484  0.61432346  0.44692355    -0.01000
C839        C  0.34194787  0.86929345  0.11671414    -0.02100
C840        C  0.32556124  0.88844107  0.10310064     0.07600
C841        C  0.33456799  0.92422056  0.11383220    -0.02200
C842        C  0.35973346  0.94058044  0.13826825    -0.02200
C843        C  0.37859847  0.92281063  0.14978293     0.07700
C844        C  0.36934335  0.88701289  0.13921462    -0.02400
Br845      Br  0.39332548  0.86169698  0.15643892    -0.01000
Br846      Br  0.32674191  0.81845531  0.10486910    -0.01000
Br847      Br  0.36612061  0.98556510  0.15762385    -0.01000
Br848      Br  0.31136476  0.94992761  0.09597755    -0.01000
C849        C  0.33571921  0.86243977  0.37861680    -0.02100
C850        C  0.33278404  0.88232866  0.40399938     0.07600
C851        C  0.35889812  0.92115079  0.40677674    -0.02200
C852        C  0.38501073  0.93986721  0.38334307    -0.02200
C853        C  0.38491061  0.92040384  0.35667962     0.07700
C854        C  0.36072159  0.88148648  0.35477986    -0.02400
Br855      Br  0.36340783  0.85321607  0.32042658    -0.01000
Br856      Br  0.30921753  0.80846704  0.37727962    -0.01000
Br857      Br  0.42030869  0.99262346  0.38792333    -0.01000
Br858      Br  0.36015826  0.94996965  0.44225302    -0.01000
C859        C  0.51845901  0.85807702  0.11993498    -0.02100
C860        C  0.54831767  0.88000538  0.09978278     0.07600
C861        C  0.56643617  0.91929058  0.10164249    -0.02200
C862        C  0.55561442  0.93631536  0.12407427    -0.02200
C863        C  0.52786504  0.91437292  0.14558462     0.07700
C864        C  0.50918974  0.87522254  0.14339263    -0.02400
Br865      Br  0.46976833  0.84497926  0.17179220    -0.01000
Br866      Br  0.48714418  0.80483119  0.11393126    -0.01000
Br867      Br  0.58029211  0.98985864  0.12554591    -0.01000
Br868      Br  0.60690477  0.95035483  0.07432992    -0.01000
C869        C  0.52876978  0.89447673  0.40570053    -0.02100
C870        C  0.55726851  0.88543297  0.40173246     0.07600
C871        C  0.57674582  0.89431216  0.37361507    -0.02200
C872        C  0.56805309  0.91217131  0.35028849    -0.02200
C873        C  0.53707760  0.91771896  0.35335149     0.07700
C874        C  0.51704566  0.90787875  0.38111996    -0.02400
Br875      Br  0.47134284  0.90955989  0.38511197    -0.01000
Br876      Br  0.50506444  0.88887514  0.44459017    -0.01000
Br877      Br  0.60061843  0.93136252  0.31527174    -0.01000
Br878      Br  0.61645108  0.88335480  0.36705320    -0.01000
C879        C  0.65512471  0.08501621  0.14938775    -0.02100
C880        C  0.61832987  0.07895707  0.14701929     0.07600
C881        C  0.60711358  0.08735969  0.11913962    -0.02200
C882        C  0.63229062  0.10195018  0.09454730    -0.02200
C883        C  0.66984556  0.11117262  0.09794838     0.07700
C884        C  0.68082077  0.10174086  0.12528247    -0.02400
Br885      Br  0.73058624  0.10916004  0.12887268    -0.01000
Br886      Br  0.67032134  0.06779114  0.18430830    -0.01000
Br887      Br  0.61417160  0.10832318  0.05619498    -0.01000
Br888      Br  0.55764755  0.08051475  0.11410191    -0.01000
C889        C  0.63753979  0.11956980  0.35534265    -0.02100
C890        C  0.61533639  0.08036610  0.35508025     0.07600
C891        C  0.61803871  0.05917233  0.37895813    -0.02200
C892        C  0.64423536  0.07681678  0.40218536    -0.02200
C893        C  0.66832790  0.11583730  0.40126454     0.07700
C894        C  0.66391080  0.13737106  0.37849352    -0.02400
Br895      Br  0.69156272  0.19146453  0.38004143    -0.01000
Br896      Br  0.63045977  0.14917555  0.32503572    -0.01000
Br897      Br  0.64698637  0.04671873  0.43463923    -0.01000
Br898      Br  0.58741693  0.00561926  0.37956508    -0.01000
C899        C  0.48788021  0.12370366  0.14436502    -0.02100
C900        C  0.47358508  0.08474012  0.14389066     0.07600
C901        C  0.45193395  0.06368997  0.11849212    -0.02200
C902        C  0.43867293  0.07986142  0.09750421    -0.02200
C903        C  0.45228290  0.11868685  0.09828186     0.07700
C904        C  0.47872055  0.14079773  0.12093590    -0.02400
Br905      Br  0.50472881  0.19478584  0.11953034    -0.01000
Br906      Br  0.52304635  0.15450049  0.17548321    -0.01000
Br907      Br  0.39931779  0.04768538  0.06961125    -0.01000
Br908      Br  0.44232328  0.01374203  0.10991373    -0.01000
C909        C  0.41761327  0.09599563  0.37543460    -0.02100
C910        C  0.44400228  0.12067258  0.39672125     0.07600
C911        C  0.48154741  0.12990529  0.39373145    -0.02200
C912        C  0.49157653  0.11042242  0.37274989    -0.02200
C913        C  0.46454086  0.08358856  0.35297395     0.07700
C914        C  0.42756124  0.07669160  0.35421177    -0.02400
Br915      Br  0.39018284  0.03998072  0.32730209    -0.01000
Br916      Br  0.36965163  0.09254495  0.37231997    -0.01000
Br917      Br  0.54264492  0.12174647  0.37023983    -0.01000
Br918      Br  0.51986617  0.17378881  0.41436532    -0.01000
O919        O  0.47256220  0.07466647  0.79913421    -0.75600
O920        O  0.48397459  0.04201304  0.83527711    -0.54500
C921        C  0.47397317  0.06540581  0.82686388     0.78200
O922        O  0.39466449  0.93264255  0.70074400    -0.60200
O923        O  0.44073173  0.95998717  0.66478896    -0.53200
C924        C  0.40652534  0.93940835  0.67310745     0.70200
O925        O  0.39754321  0.93530633  0.80428084    -0.74700
O926        O  0.44519557  0.96275825  0.83854669    -0.55300
C927        C  0.41064753  0.94172994  0.83174876     0.76200
O928        O  0.47900154  0.07628367  0.69484547    -0.59900
O929        O  0.48868228  0.04019509  0.66079934    -0.53000
C930        C  0.48135233  0.06618209  0.66726112     0.72800
Zr931      Zr  0.48507780  0.05979564  0.74797960     2.54700
O932        O  0.42901940  0.06485322  0.74632018    -0.80400
O933        O  0.52421196  0.12763246  0.74789525    -0.93800
Zr934      Zr  0.42146257  0.94922524  0.75151147     2.64700
O935        O  0.36619496  0.95586494  0.75211699    -0.98800
O936        O  0.38467622  0.88126852  0.75111129    -0.80900
O937        O  0.45380271  0.00578348  0.77911464    -0.84200
O938        O  0.45253872  0.00335674  0.72035441    -2.18900
O939        O  0.60254469  0.06873816  0.69967636    -0.67600
O940        O  0.55689353  0.03753487  0.66438719    -0.52200
C941        C  0.59085783  0.06091205  0.67206116     0.71200
O942        O  0.52573341  0.92473595  0.80105291    -0.60500
O943        O  0.51816146  0.96179169  0.83555112    -0.52500
C944        C  0.52646780  0.93649543  0.82845116     0.73000
O945        O  0.51967915  0.92031266  0.69908588    -0.71900
O946        O  0.51153480  0.95540554  0.66331276    -0.50600
C947        C  0.51908883  0.93010930  0.67139990     0.74400
O948        O  0.60171055  0.06864330  0.80110156    -0.67200
O949        O  0.55561990  0.04031528  0.83663641    -0.54400
C950        C  0.58968746  0.06205890  0.82872875     0.72700
Zr951      Zr  0.57575450  0.04926511  0.75013640     2.77500
O952        O  0.62495243  0.03354216  0.75389605    -0.98000
O953        O  0.61919206  0.11627388  0.74940624    -0.78800
Zr954      Zr  0.51098405  0.93806200  0.75042318     2.70100
O955        O  0.55797147  0.91940222  0.74591206    -0.80100
O956        O  0.46278062  0.87249489  0.75412125    -0.99100
Zr957      Zr  0.49969514  0.00086541  0.80796806     2.21500
Zr958      Zr  0.49887895  0.99810924  0.69178477     2.11100
O959        O  0.54451771  0.99331923  0.72102626    -2.47800
O960        O  0.54464556  0.99412281  0.77931753    -0.79800
O961        O  0.53144007  0.05500106  0.71979753    -0.72000
O962        O  0.46623769  0.94335145  0.78071371    -2.33000
O963        O  0.53102912  0.05672421  0.77852551    -2.29200
O964        O  0.46548125  0.94228171  0.72095369    -0.73800
H965        H  0.43479517  0.00489524  0.70713139     0.78200
H966        H  0.45431759  0.92237775  0.79443146     0.79300
H967        H  0.56243448  0.99153898  0.70799206     0.81500
H968        H  0.54313917  0.07857954  0.79152539     0.79100
H969        H  0.39231481  0.87359235  0.73222597     0.42200
H970        H  0.47445666  0.85865789  0.74534051     0.41100
H971        H  0.58100498  0.94254844  0.73995904     0.40800
H972        H  0.62138893  0.01719721  0.73611860     0.38700
H973        H  0.60308005  0.12753290  0.74752978     0.41900
H974        H  0.54298187  0.13325872  0.76399241     0.36600
H975        H  0.43794400  0.09110243  0.74046843     0.42800
H976        H  0.37178024  0.97563251  0.76751100     0.39200
H977        H  0.64824034  0.05719371  0.74950261     0.44100
H978        H  0.50805575  0.13688672  0.75628820     0.42800
H979        H  0.36675234  0.96773096  0.73244297     0.43000
H980        H  0.46068738  0.86685942  0.77618491     0.43300
O981        O  0.06796350  0.60276894  0.80186926    -0.75600
O982        O  0.03203044  0.55715186  0.83573540    -0.54500
C983        C  0.05675537  0.59108607  0.82911405     0.78200
O984        O  0.92877429  0.52625576  0.69280732    -0.60200
O985        O  0.96174086  0.51226494  0.65883686    -0.53200
C986        C  0.93758846  0.52196965  0.66539351     0.70200
O987        O  0.92261515  0.52773265  0.79711803    -0.74700
O988        O  0.95473097  0.51578528  0.83295859    -0.55300
C989        C  0.93076409  0.52514141  0.82505156     0.76200
O990        O  0.07395929  0.60404078  0.70054450    -0.59900
O991        O  0.04212750  0.55975759  0.66398174    -0.53000
C992        C  0.06545303  0.59325367  0.67278093     0.72800
Zr993      Zr  0.05388325  0.57637552  0.75046845     2.54700
O994        O  0.05547940  0.63598011  0.74853140    -0.80400
O995        O  0.12159045  0.60660922  0.75355597    -0.93800
Zr996      Zr  0.94228744  0.51903523  0.74599808     2.64700
O997        O  0.93818026  0.57572493  0.74309938    -0.98800
O998        O  0.87465399  0.48051183  0.74414082    -0.80900
O999        O  0.99630771  0.54855178  0.77720949    -0.84200
O1000       O  0.99984515  0.54901878  0.71924996    -2.18900
O1001       O  0.07315222  0.47111011  0.69964068    -0.67600
O1002       O  0.04456323  0.48686869  0.66309053    -0.52200
C1003       C  0.06647186  0.47512514  0.67164531     0.71200
O1004       O  0.92811284  0.39598175  0.79651739    -0.60500
O1005       O  0.95721880  0.44135831  0.83295621    -0.52500
C1006       C  0.93566176  0.40723174  0.82440110     0.73000
O1007       O  0.92859432  0.40139632  0.69266299    -0.71900
O1008       O  0.96545446  0.44714102  0.65902035    -0.50600
C1009       C  0.93961375  0.41382620  0.66540409     0.74400
O1010       O  0.07035368  0.47521858  0.80398858    -0.67200
O1011       O  0.03688966  0.48936688  0.83722655    -0.54400
C1012       C  0.06144483  0.48006116  0.83126233     0.72700
Zr1013     Zr  0.05503019  0.48073070  0.75078301     2.77500
O1014       O  0.05409134  0.42179518  0.75728770    -0.98000
O1015       O  0.12276043  0.51529304  0.74772269    -0.78800
Zr1016     Zr  0.94424957  0.42371177  0.74575139     2.70100
O1017       O  0.94736153  0.36643677  0.74295207    -0.80100
O1018       O  0.87633804  0.38885528  0.74628990    -0.99100
Zr1019     Zr  0.99561640  0.49986701  0.80608749     2.21500
Zr1020     Zr  0.00274177  0.50146933  0.69036149     2.11100
O1021       O  0.00154096  0.45202528  0.71897026    -2.47800
O1022       O  0.99770891  0.45169777  0.77755727    -0.79800
O1023       O  0.05752481  0.52979841  0.72096753    -0.72000
O1024       O  0.94058275  0.47028163  0.77556513    -2.33000
O1025       O  0.05384327  0.52875992  0.77999460    -2.29200
O1026       O  0.94435515  0.47173164  0.71641732    -0.73800
H1027       H  0.00013452  0.56779517  0.70611450     0.78200
H1028       H  0.91855608  0.45886003  0.78826967     0.79300
H1029       H  0.00226133  0.43350074  0.70586089     0.81500
H1030       H  0.07448578  0.53979839  0.79408918     0.79100
H1031       H  0.86859150  0.45864136  0.75704874     0.42200
H1032       H  0.86899717  0.40294917  0.73254814     0.41100
H1033       H  0.92236418  0.34710747  0.73578161     0.40800
H1034       H  0.03104913  0.40297889  0.74687647     0.38700
H1035       H  0.13027671  0.53804719  0.76015498     0.41900
H1036       H  0.12863791  0.59475654  0.73711692     0.36600
H1037       H  0.02992117  0.62942561  0.74245208     0.42800
H1038       H  0.95845532  0.59226651  0.72901463     0.39200
H1039       H  0.07472615  0.42395654  0.74435135     0.44100
H1040       H  0.12662325  0.59732488  0.77266524     0.42800
H1041       H  0.91492323  0.56830106  0.73165688     0.43000
H1042       H  0.86949295  0.36540785  0.73505401     0.43300
O1043       O  0.39467043  0.46577195  0.79805060    -0.75600
O1044       O  0.43854588  0.48070228  0.83517587    -0.54500
C1045       C  0.40495700  0.46915640  0.82606687     0.78200
O1046       O  0.46558119  0.39551172  0.69866905    -0.60200
O1047       O  0.48374720  0.44231533  0.66372917    -0.53200
C1048       C  0.47024985  0.40795462  0.67128872     0.70200
O1049       O  0.46599673  0.39565448  0.80238385    -0.74700
O1050       O  0.47959832  0.44127105  0.83798763    -0.55300
C1051       C  0.46903683  0.40747079  0.83015804     0.76200
O1052       O  0.40277669  0.47159947  0.69398061    -0.59900
O1053       O  0.45003623  0.48573678  0.66036360    -0.53000
C1054       C  0.41605906  0.47572234  0.66654430     0.72800
Zr1055     Zr  0.42362696  0.47861105  0.74776069     2.54700
O1056       O  0.36354377  0.42128303  0.74434950    -0.80400
O1057       O  0.39333288  0.51603931  0.74998177    -0.93800
Zr1058     Zr  0.47685994  0.42073789  0.75036603     2.64700
O1059       O  0.41952775  0.36033123  0.75113125    -0.98800
O1060       O  0.51409412  0.39015727  0.74801461    -0.80900
O1061       O  0.44835014  0.44892610  0.77840341    -0.84200
O1062       O  0.45112243  0.44962747  0.72012772    -2.18900
O1063       O  0.53162563  0.60149209  0.70151055    -0.67600
O1064       O  0.52018561  0.55644229  0.66602209    -0.52200
C1065       C  0.52990892  0.59022116  0.67383605     0.71200
O1066       O  0.59782870  0.52167287  0.80403418    -0.60500
O1067       O  0.55253158  0.51354574  0.83778469    -0.52500
C1068       C  0.58593384  0.52117659  0.83130100     0.73000
O1069       O  0.60173005  0.52368360  0.70149489    -0.71900
O1070       O  0.55790494  0.51308809  0.66549621    -0.50600
C1071       C  0.59104136  0.52202652  0.67372766     0.74400
O1072       O  0.53206680  0.59865829  0.80337499    -0.67200
O1073       O  0.51488838  0.55256788  0.83863638    -0.54400
C1074       C  0.52771070  0.58680768  0.83092962     0.72700
Zr1075     Zr  0.52062478  0.57326154  0.75186126     2.77500
O1076       O  0.57889081  0.63204900  0.75741622    -0.98000
O1077       O  0.48362306  0.60411911  0.75282448    -0.78800
Zr1078     Zr  0.57396633  0.51497799  0.75223115     2.70100
O1079       O  0.63199801  0.57450404  0.75045083    -0.80100
O1080       O  0.60439157  0.47751181  0.75271054    -0.99100
Zr1081     Zr  0.49643998  0.49648658  0.80882167     2.21500
Zr1082     Zr  0.50169697  0.49854791  0.69280351     2.11100
O1083       O  0.54960327  0.54591729  0.72308766    -2.47800
O1084       O  0.54683197  0.54419910  0.78104461    -0.79800
O1085       O  0.47307908  0.52752363  0.72014156    -0.72000
O1086       O  0.52468973  0.46714974  0.78106980    -2.33000
O1087       O  0.47005973  0.52583258  0.77961284    -2.29200
O1088       O  0.52702193  0.46767081  0.72139656    -0.73800
H1089       H  0.43242877  0.43146409  0.70660126     0.78200
H1090       H  0.53445090  0.45580081  0.79462284     0.79300
H1091       H  0.56914879  0.56479647  0.71060999     0.81500
H1092       H  0.45911771  0.53659337  0.79282733     0.79100
H1093       H  0.49695456  0.36486388  0.73977291     0.42200
H1094       H  0.59997092  0.46677432  0.77343945     0.41100
H1095       H  0.65155633  0.56763297  0.74763664     0.40800
H1096       H  0.59690648  0.62917773  0.74440957     0.38700
H1097       H  0.46027557  0.58657955  0.76351878     0.41900
H1098       H  0.36867913  0.50007052  0.74040760     0.36600
H1099       H  0.36782544  0.40206316  0.75380113     0.42800
H1100       H  0.40265322  0.36308024  0.73682553     0.39200
H1101       H  0.57463997  0.65079010  0.74706758     0.44100
H1102       H  0.40729563  0.53642545  0.73523697     0.42800
H1103       H  0.42586677  0.34287959  0.74070961     0.43000
H1104       H  0.58867684  0.45586650  0.73934338     0.43300
O1105       O  0.78473304  0.46869440  0.50180576    -0.75600
O1106       O  0.84640704  0.51314473  0.50019676    -0.54500
C1107       C  0.82177442  0.48037963  0.00204992     0.78200
O1108       O  0.72136043  0.55578561  0.91956539    -0.60200
O1109       O  0.68837801  0.56594256  0.95647291    -0.53200
C1110       C  0.69321870  0.55848542  0.92887432     0.70200
O1111       O  0.83072174  0.55734740  0.91744907    -0.74700
O1112       O  0.87306351  0.56461513  0.95379685    -0.55300
C1113       C  0.86113757  0.55893782  0.92609109     0.76200
O1114       O  0.67718815  0.46989596  0.50243460    -0.59900
O1115       O  0.66250442  0.51471677  0.00470665    -0.53000
C1116       C  0.65465836  0.48034718  0.00569855     0.72800
Zr1117     Zr  0.74466154  0.49590288  0.50779281     2.54700
O1118       O  0.71364442  0.43394628  0.98868801    -0.80400
O1119       O  0.72724013  0.46483403  0.55704289    -0.93800
Zr1120     Zr  0.77963665  0.56304307  0.93940450     2.64700
O1121       O  0.75446406  0.50811943  0.90636267    -0.98800
O1122       O  0.80044217  0.60711417  0.89741801    -0.80900
O1123       O  0.79345243  0.52838962  0.97438287    -0.84200
O1124       O  0.73162863  0.52883010  0.97493433    -2.18900
O1125       O  0.73057733  0.56433914  0.58570393    -0.67600
O1126       O  0.69158361  0.56547846  0.54991036    -0.52200
C1127       C  0.69921748  0.56064789  0.57728267     0.71200
O1128       O  0.89302721  0.67865359  0.99362830    -0.60500
O1129       O  0.90632698  0.63145690  0.99897498    -0.52500
C1130       C  0.91706510  0.66471405  0.49648125     0.73000
O1131       O  0.78160599  0.67846947  0.99289865    -0.71900
O1132       O  0.72140098  0.63163682  0.00065891    -0.50600
C1133       C  0.74806698  0.66724437  0.49829617     0.74400
O1134       O  0.83941616  0.57238523  0.58516396    -0.67200
O1135       O  0.87346260  0.56619183  0.54708242    -0.54400
C1136       C  0.86501078  0.56584830  0.57538609     0.72700
Zr1137     Zr  0.79177828  0.58427507  0.56384099     2.77500
O1138       O  0.81981868  0.64866701  0.58190908    -0.98000
O1139       O  0.79049678  0.57911754  0.61918512    -0.78800
Zr1140     Zr  0.82414453  0.65201065  0.99385939     2.70100
O1141       O  0.85439414  0.70784014  0.52707245    -0.80100
O1142       O  0.83984218  0.68596074  0.94588605    -0.99100
Zr1143     Zr  0.84741618  0.57268190  0.00165687     2.21500
Zr1144     Zr  0.72246344  0.57308390  0.00319146     2.11100
O1145       O  0.77659217  0.61881312  0.52984125    -2.47800
O1146       O  0.84075911  0.61827382  0.52895693    -0.79800
O1147       O  0.73722220  0.53976629  0.53722515    -0.72000
O1148       O  0.83362492  0.60757240  0.96602452    -2.33000
O1149       O  0.79792173  0.53780470  0.53611043    -2.29200
O1150       O  0.77028638  0.60749416  0.96666071    -0.73800
H1151       H  0.70958471  0.51160910  0.96379926     0.78200
H1152       H  0.85412791  0.62044284  0.95190365     0.79300
H1153       H  0.77073445  0.63518579  0.54142142     0.81500
H1154       H  0.80316310  0.52218318  0.54899149     0.79100
H1155       H  0.79891538  0.59202543  0.87926106     0.42200
H1156       H  0.84991244  0.67349490  0.93273432     0.41100
H1157       H  0.83465740  0.70408439  0.54182462     0.40800
H1158       H  0.80089263  0.64877142  0.59574799     0.38700
H1159       H  0.77177325  0.55278202  0.62358252     0.41900
H1160       H  0.74154632  0.48474868  0.57223178     0.36600
H1161       H  0.71872532  0.43824872  0.96657947     0.42800
H1162       H  0.72828122  0.49223729  0.91306284     0.39200
H1163       H  0.84027819  0.65206563  0.59553323     0.44100
H1164       H  0.73889716  0.44896315  0.55729720     0.42800
H1165       H  0.75264482  0.51732146  0.88603449     0.43000
H1166       H  0.81544081  0.67907766  0.93666106     0.43300
O1167       O  0.68108370  0.21225536  0.49250142    -0.75600
O1168       O  0.66335220  0.15075739  0.49843750    -0.54500
C1169       C  0.65564739  0.17328640  0.99710839     0.78200
O1170       O  0.83723870  0.26651658  0.91205142    -0.60200
O1171       O  0.87586488  0.30699551  0.94833458    -0.53200
C1172       C  0.86478396  0.29823630  0.92050858     0.70200
O1173       O  0.72969864  0.16213982  0.91460589    -0.74700
O1174       O  0.69102404  0.12351576  0.95149606    -0.55300
C1175       C  0.69843999  0.13487446  0.92380186     0.76200
O1176       O  0.78568535  0.31647704  0.99175825    -0.59900
O1177       O  0.84734056  0.33410670  0.99426314    -0.53000
C1178       C  0.82045092  0.34137175  0.99251373     0.72800
Zr1179     Zr  0.74857726  0.25055921  0.48988808     2.54700
O1180       O  0.72222776  0.26313472  0.94812100    -0.80400
O1181       O  0.73162718  0.28700105  0.52322121    -0.93800
Zr1182     Zr  0.79056715  0.20716817  0.93453548     2.64700
O1183       O  0.77768789  0.21075276  0.88083632    -0.98800
O1184       O  0.82107446  0.17519064  0.91231842    -0.80900
O1185       O  0.73778588  0.19733119  0.96354403    -0.84200
O1186       O  0.79853388  0.26019268  0.96255721    -2.18900
O1187       O  0.83175485  0.27672619  0.57936813    -0.67600
O1188       O  0.87351450  0.31016800  0.54200707    -0.52200
C1189       C  0.86129711  0.30574512  0.56960721     0.71200
O1190       O  0.78428880  0.10358420  0.00512674    -0.60500
O1191       O  0.72349386  0.08951218  0.00081319    -0.52500
C1192       C  0.74426657  0.07849697  0.50181198     0.73000
O1193       O  0.89491377  0.21498463  0.00194401    -0.71900
O1194       O  0.90837442  0.27584493  0.99832988    -0.50600
C1195       C  0.91666153  0.24756277  0.50058289     0.74400
O1196       O  0.72762251  0.16622936  0.58309204    -0.67200
O1197       O  0.69057852  0.12392903  0.54709072    -0.54400
C1198       C  0.69795084  0.13614732  0.57475029     0.72700
Zr1199     Zr  0.78437952  0.21628622  0.56004719     2.77500
O1200       O  0.81630968  0.19695227  0.59559505    -0.98000
O1201       O  0.75957760  0.23588701  0.60219806    -0.78800
Zr1202     Zr  0.82658837  0.17250519  0.00244258     2.70100
O1203       O  0.84384898  0.14964785  0.54778200    -0.80100
O1204       O  0.85119206  0.14471731  0.96675169    -0.99100
Zr1205     Zr  0.72408557  0.14866165  0.99881411     2.21500
Zr1206     Zr  0.84897135  0.27539920  0.99656855     2.11100
O1207       O  0.83662199  0.22546481  0.53093681    -2.47800
O1208       O  0.77206491  0.16146139  0.53311871    -0.79800
O1209       O  0.79711996  0.26461143  0.52484817    -0.72000
O1210       O  0.77619300  0.15724873  0.96835861    -2.33000
O1211       O  0.73447659  0.20380148  0.52689741    -2.29200
O1212       O  0.84094884  0.22232790  0.96771148    -0.73800
H1213       H  0.80321051  0.28077250  0.94948360     0.78200
H1214       H  0.76997634  0.13490102  0.95676694     0.79300
H1215       H  0.85769106  0.23306094  0.54432277     0.81500
H1216       H  0.71311285  0.19976042  0.53881880     0.79100
H1217       H  0.80634471  0.16264850  0.89383485     0.42200
H1218       H  0.86530136  0.16452194  0.95156681     0.41100
H1219       H  0.82083306  0.13545168  0.56001259     0.40800
H1220       H  0.81254498  0.20549564  0.61576395     0.38700
H1221       H  0.74752136  0.24856193  0.59228335     0.41900
H1222       H  0.72769838  0.27511438  0.54343750     0.36600
H1223       H  0.73853653  0.26394265  0.93120346     0.42800
H1224       H  0.77328653  0.23211677  0.87945957     0.39200
H1225       H  0.80075772  0.16938756  0.59623655     0.44100
H1226       H  0.70663720  0.28143779  0.51635467     0.42800
H1227       H  0.80145858  0.21889366  0.86985225     0.43000
H1228       H  0.87063263  0.14289873  0.97840081     0.43300
O1229       O  0.31744671  0.78989673  0.50154994    -0.75600
O1230       O  0.33462925  0.85162146  0.50103156    -0.54500
C1231       C  0.34257836  0.82681356  0.00142614     0.78200
O1232       O  0.15937836  0.73005356  0.91821470    -0.60200
O1233       O  0.12048144  0.69201022  0.95525868    -0.53200
C1234       C  0.13057421  0.69958433  0.92716951     0.70200
O1235       O  0.27144018  0.83445439  0.91882729    -0.74700
O1236       O  0.30835780  0.87370679  0.95610909    -0.55300
C1237       C  0.30237200  0.86237659  0.92822217     0.76200
O1238       O  0.21165280  0.68249292  0.50273676    -0.59900
O1239       O  0.14856020  0.66570623  0.00210232    -0.58400
C1240       C  0.17506465  0.65784347  0.00184308     0.72800
Zr1241     Zr  0.25042358  0.74975434  0.50612481     2.54700
O1242       O  0.27541596  0.72759570  0.96416848    -0.80400
O1243       O  0.26949286  0.73215923  0.55267057    -0.93800
Zr1244     Zr  0.21069052  0.78829283  0.93955783     2.64700
O1245       O  0.22535749  0.76962821  0.89101212    -0.98800
O1246       O  0.18633380  0.82201981  0.91143267    -0.80900
O1247       O  0.26170669  0.79958832  0.97122389    -0.84200
O1248       O  0.20032371  0.73742856  0.97101569    -2.18900
O1249       O  0.16364048  0.73253586  0.58659819    -0.67600
O1250       O  0.12239155  0.69405097  0.55061595    -0.52200
C1251       C  0.13486136  0.70189432  0.57805974     0.71200
O1252       O  0.21257566  0.89561667  0.00532743    -0.60500
O1253       O  0.27345995  0.90918743  0.00354670    -0.52500
C1254       C  0.24996180  0.91924701  0.49907027     0.73000
O1255       O  0.10159614  0.78461804  0.99860866    -0.71900
O1256       O  0.08889639  0.72401838  0.00036630    -0.50600
C1257       C  0.07974016  0.74730393  0.49643458     0.74400
O1258       O  0.26781102  0.84060816  0.58694959    -0.67200
O1259       O  0.30640330  0.87945792  0.54988390    -0.54400
C1260       C  0.29850595  0.86876095  0.57780118     0.72700
Zr1261     Zr  0.20910550  0.79247441  0.56535849     2.77500
O1262       O  0.17804549  0.82281181  0.58950308    -0.98000
O1263       O  0.22076341  0.78198089  0.61770372    -0.78800
Zr1264     Zr  0.17037465  0.82717126  0.00230323     2.70100
O1265       O  0.14314499  0.85328833  0.53190830    -0.80100
O1266       O  0.14991921  0.85203699  0.96122388    -0.99100
Zr1267     Zr  0.27396850  0.85084414  0.00360969     2.21500
Zr1268     Zr  0.14838947  0.72500374  0.00278258     2.11100
O1269       O  0.15819912  0.77760769  0.53261866    -2.47800
O1270       O  0.22235531  0.84217149  0.53187036    -0.79800
O1271       O  0.19909993  0.73886130  0.53708636    -0.72000
O1272       O  0.22305198  0.84016618  0.97099316    -2.33000
O1273       O  0.26172189  0.80150743  0.53641930    -2.29200
O1274       O  0.15864232  0.77552668  0.97038382    -0.73800
H1275       H  0.19509266  0.71603740  0.95848988     0.78200
H1276       H  0.23006144  0.86182056  0.95844631     0.79300
H1277       H  0.13615479  0.77130471  0.54453979     0.81500
H1278       H  0.28302496  0.80711120  0.54888130     0.79100
H1279       H  0.17928954  0.80944614  0.89129382     0.42200
H1280       H  0.14051725  0.86702439  0.97168110     0.41100
H1281       H  0.14996063  0.87794575  0.52318405     0.40800
H1282       H  0.15837380  0.80310183  0.60231432     0.38700
H1283       H  0.23232795  0.76608275  0.61587689     0.41900
H1284       H  0.25236079  0.70488103  0.55446364     0.36600
H1285       H  0.26807121  0.73465329  0.94498311     0.42800
H1286       H  0.22167333  0.74429208  0.89424597     0.39200
H1287       H  0.19654289  0.84060800  0.60426392     0.44100
H1288       H  0.26190010  0.74315230  0.56941893     0.42800
H1289       H  0.20556345  0.76617868  0.87658406     0.43000
H1290       H  0.17316254  0.87076853  0.95103149     0.43300
O1291       O  0.56796424  0.83931361  0.91595774    -0.75600
O1292       O  0.57274458  0.87984484  0.95350509    -0.54500
C1293       C  0.56846340  0.86920337  0.92543727     0.78200
O1294       O  0.46886125  0.67779983  0.50705364    -0.60200
O1295       O  0.50935832  0.66481134  0.99864016    -0.53200
C1296       C  0.47521917  0.65756745  0.00004065     0.70200
O1297       O  0.46757857  0.78438522  0.50131973    -0.74700
O1298       O  0.51224747  0.84609923  0.50223211    -0.55300
C1299       C  0.48127390  0.82751598  0.99761307     0.76200
O1300       O  0.56671368  0.72979567  0.91495551    -0.59900
O1301       O  0.56463205  0.69022298  0.95187413    -0.53000
C1302       C  0.56294412  0.69850156  0.92404581     0.72800
Zr1303     Zr  0.57650865  0.78894431  0.93621149     2.54700
O1304       O  0.54590728  0.77251170  0.88672209    -0.80400
O1305       O  0.63498247  0.81589135  0.90800415    -0.93800
Zr1306     Zr  0.49518076  0.74464071  0.50324501     2.64700
O1307       O  0.45410887  0.72906364  0.95223434    -0.98800
O1308       O  0.44975027  0.72782117  0.54419923    -0.80900
O1309       O  0.53543061  0.80077646  0.96615771    -0.84200
O1310       O  0.53333181  0.73704233  0.96568047    -2.18900
O1311       O  0.67619944  0.78134135  0.99741019    -0.67600
O1312       O  0.62805394  0.72070312  0.99708135    -0.52200
C1313       C  0.66519400  0.74528748  0.49940436     0.71200
O1314       O  0.56512858  0.83227618  0.58670868    -0.60500
O1315       O  0.56415286  0.87075776  0.55007155    -0.52500
C1316       C  0.56105901  0.85955784  0.57782839     0.73000
O1317       O  0.56926615  0.72733893  0.58544714    -0.71900
O1318       O  0.57156928  0.68998599  0.54808388    -0.50600
C1319       C  0.56866682  0.69739078  0.57618188     0.74400
O1320       O  0.67842248  0.89451886  0.00235722    -0.67200
O1321       O  0.63178443  0.90898249  0.00294451    -0.54400
C1322       C  0.66411789  0.91603180  0.50259008     0.72700
Zr1323     Zr  0.65151296  0.82518756  0.00224509     2.77500
O1324       O  0.69919714  0.84610136  0.53898973    -0.98000
O1325       O  0.70542839  0.85370423  0.96845920    -0.78800
Zr1326     Zr  0.57753701  0.78578942  0.56445358     2.70100
O1327       O  0.63996829  0.82009475  0.58600535    -0.80100
O1328       O  0.55535468  0.77613305  0.61705280    -0.99100
Zr1329     Zr  0.57338905  0.84980428  0.00080732     2.21500
Zr1330     Zr  0.57010807  0.72287827  0.99882130     2.11100
O1331       O  0.61478069  0.77264798  0.53179535    -2.47800
O1332       O  0.61412049  0.83733314  0.53237905    -0.79800
O1333       O  0.61323552  0.77478411  0.96856405    -0.72000
O1334       O  0.53486289  0.79508650  0.53472726    -2.33000
O1335       O  0.61477588  0.83930160  0.96919933    -2.29200
O1336       O  0.53488243  0.73326445  0.53484488    -0.73800
H1337       H  0.51716283  0.71596349  0.95295182     0.78200
H1338       H  0.51838251  0.79964700  0.54733011     0.79300
H1339       H  0.63025492  0.76636180  0.54390381     0.81500
H1340       H  0.63053316  0.86112987  0.95714275     0.79100
H1341       H  0.46484357  0.73616769  0.56306969     0.42200
H1342       H  0.53211613  0.75151970  0.61716792     0.41100
H1343       H  0.63641082  0.82807703  0.60648119     0.40800
H1344       H  0.72301427  0.85516415  0.52784268     0.38700
H1345       H  0.69965092  0.83494475  0.95210140     0.41900
H1346       H  0.62747069  0.81389850  0.88637161     0.36600
H1347       H  0.52230861  0.77270279  0.88983014     0.42800
H1348       H  0.47127575  0.74080692  0.93479752     0.39200
H1349       H  0.70043676  0.86902927  0.54734701     0.44100
H1350       H  0.64337815  0.79738191  0.91005366     0.42800
H1351       H  0.44539231  0.70205550  0.95004281     0.43000
H1352       H  0.57353932  0.77240247  0.62885868     0.43300
O1353       O  0.20862490  0.52695965  0.49619762    -0.75600
O1354       O  0.14694796  0.48334014  0.49828721    -0.54500
C1355       C  0.17069236  0.51685332  0.99654176     0.78200
O1356       O  0.26247439  0.42901649  0.91148119    -0.60200
O1357       O  0.30218718  0.43005516  0.94777548    -0.53200
C1358       C  0.29337010  0.43182413  0.91988310     0.70200
O1359       O  0.16016264  0.43620370  0.91614208    -0.74700
O1360       O  0.12216831  0.43550158  0.95387667    -0.55300
C1361       C  0.13328379  0.44056353  0.92593807     0.76200
O1362       O  0.31692847  0.52609745  0.50783578    -0.59900
O1363       O  0.33214734  0.48304677  0.99830325    -0.53000
C1364       C  0.33959239  0.51709962  0.00122207     0.72800
Zr1365     Zr  0.25041951  0.50135799  0.49888190     2.54700
O1366       O  0.27286273  0.54369451  0.95474849    -0.80400
O1367       O  0.27138514  0.55392255  0.53414419    -0.93800
Zr1368     Zr  0.20524577  0.41985259  0.93508137     2.64700
O1369       O  0.21365511  0.44045675  0.88217857    -0.98800
O1370       O  0.17012191  0.35901158  0.91016026    -0.80900
O1371       O  0.19649324  0.46217834  0.96637846    -0.84200
O1372       O  0.25830466  0.46288947  0.96428220    -2.18900
O1373       O  0.27247567  0.43610257  0.58229880    -0.67600
O1374       O  0.30899965  0.43424265  0.54440410    -0.52200
C1375       C  0.30329484  0.43933866  0.57250106     0.71200
O1376       O  0.10187048  0.31893144  0.00348152    -0.60500
O1377       O  0.08794794  0.36617181  0.00235053    -0.52500
C1378       C  0.07809712  0.33099600  0.50172115     0.73000
O1379       O  0.21366103  0.31895293  0.99277995    -0.71900
O1380       O  0.27234036  0.36768417  0.99981630    -0.50600
C1381       C  0.24703778  0.32966483  0.49834663     0.74400
O1382       O  0.16287220  0.42874585  0.58589388    -0.67200
O1383       O  0.12468910  0.43122155  0.54967539    -0.54400
C1384       C  0.13545493  0.43262088  0.57739385     0.72700
Zr1385     Zr  0.21175582  0.42163401  0.56219844     2.77500
O1386       O  0.18856896  0.36284338  0.58929184    -0.98000
O1387       O  0.22272141  0.45352985  0.61105264    -0.78800
Zr1388     Zr  0.17023206  0.34406425  0.99906891     2.70100
O1389       O  0.14503069  0.29750087  0.53918202    -0.80100
O1390       O  0.14088627  0.29472985  0.96077719    -0.99100
Zr1391     Zr  0.14693257  0.42465007  0.00057132     2.21500
Zr1392     Zr  0.27203310  0.42575949  0.99724728     2.11100
O1393       O  0.22285018  0.38245826  0.52990946    -2.47800
O1394       O  0.15879706  0.38370067  0.53179886    -0.79800
O1395       O  0.26208628  0.46257622  0.53076401    -0.72000
O1396       O  0.15524231  0.38214157  0.96803423    -2.33000
O1397       O  0.20095532  0.46295656  0.53203140    -2.29200
O1398       O  0.22068988  0.38295738  0.96604431    -0.73800
H1399       H  0.27996188  0.47944407  0.95112201     0.78200
H1400       H  0.13294550  0.36691543  0.95621773     0.79300
H1401       H  0.22978012  0.36751740  0.54209168     0.81500
H1402       H  0.19640458  0.47930623  0.54493679     0.79100
H1403       H  0.18901815  0.35180133  0.90514023     0.42200
H1404       H  0.16179310  0.29615719  0.94865854     0.41100
H1405       H  0.14679076  0.27605312  0.53095527     0.40800
H1406       H  0.21071190  0.36517793  0.59986482     0.38700
H1407       H  0.23035283  0.47966688  0.60571542     0.41900
H1408       H  0.24978276  0.54749491  0.54763926     0.36600
H1409       H  0.26048777  0.52786568  0.93666255     0.42800
H1410       H  0.23851688  0.46331768  0.88102907     0.39200
H1411       H  0.17282676  0.36401833  0.60582941     0.44100
H1412       H  0.27398788  0.57493807  0.52160768     0.42800
H1413       H  0.21591823  0.42133648  0.87009239     0.43000
H1414       H  0.13107408  0.27116975  0.97236961     0.43300
O1415       O  0.42781363  0.15970028  0.91370196    -0.75600
O1416       O  0.42988880  0.12209814  0.95058509    -0.54500
C1417       C  0.43153878  0.13240105  0.92261108     0.78200
O1418       O  0.52800335  0.31625103  0.99835590    -0.60200
O1419       O  0.48332954  0.33307727  0.99935694    -0.53200
C1420       C  0.51758602  0.34094548  0.99854940     0.70200
O1421       O  0.52699689  0.21413279  0.49897575    -0.74700
O1422       O  0.48337929  0.15214645  0.49942139    -0.55300
C1423       C  0.51578437  0.17040808  0.00039543     0.76200
O1424       O  0.42893544  0.26521090  0.91402941    -0.59900
O1425       O  0.43172406  0.30509938  0.95148084    -0.53000
C1426       C  0.43330200  0.29663783  0.92336582     0.72800
Zr1427     Zr  0.41942142  0.20789636  0.93655389     2.54700
O1428       O  0.45192568  0.21992840  0.88795663    -0.80400
O1429       O  0.36108169  0.18020279  0.90825922    -0.93800
Zr1430     Zr  0.49868007  0.25377255  0.49802850     2.64700
O1431       O  0.54452370  0.26454344  0.95560596    -0.98800
O1432       O  0.54844038  0.28309095  0.53540002    -0.80900
O1433       O  0.46114819  0.19754073  0.96637394    -0.84200
O1434       O  0.46281383  0.25981728  0.96617456    -2.18900
O1435       O  0.31884274  0.21565611  0.00218362    -0.67600
O1436       O  0.36820829  0.27417678  0.99835687    -0.52200
C1437       C  0.32561690  0.24791864  0.50099169     0.71200
O1438       O  0.43669916  0.16685187  0.58377766    -0.60500
O1439       O  0.43571535  0.12852695  0.54581392    -0.52500
C1440       C  0.44075574  0.13966200  0.57388436     0.73000
O1441       O  0.42966115  0.26989691  0.58396657    -0.71900
O1442       O  0.42463005  0.30728211  0.54848154    -0.50600
C1443       C  0.42993448  0.29977973  0.57571240     0.74400
O1444       O  0.31844715  0.10253298  0.00385695    -0.67200
O1445       O  0.36576906  0.08889048  0.00299696    -0.54400
C1446       C  0.33138247  0.08096785  0.50027335     0.72700
Zr1447     Zr  0.34355797  0.17118088  0.00109015     2.77500
O1448       O  0.29402535  0.14783145  0.53960581    -0.98000
O1449       O  0.29903766  0.14698790  0.95923596    -0.78800
Zr1450     Zr  0.41977065  0.21111925  0.56285920     2.70100
O1451       O  0.35982398  0.17426362  0.58816422    -0.80100
O1452       O  0.44289743  0.23050266  0.61465162    -0.99100
Zr1453     Zr  0.42392274  0.14747663  0.99974471     2.21500
Zr1454     Zr  0.42542632  0.27303504  0.99948750     2.11100
O1455       O  0.38008832  0.22349458  0.53271091    -2.47800
O1456       O  0.38189299  0.15942033  0.53116525    -0.79800
O1457       O  0.38206378  0.22208893  0.96840778    -0.72000
O1458       O  0.46213572  0.20368467  0.53085599    -2.33000
O1459       O  0.38168860  0.15706772  0.96875469    -2.29200
O1460       O  0.45942786  0.26349816  0.53200182    -0.73800
H1461       H  0.47883948  0.28082677  0.95345739     0.78200
H1462       H  0.47963237  0.20010550  0.54270071     0.79300
H1463       H  0.36488372  0.22945898  0.54576011     0.81500
H1464       H  0.36635749  0.13515691  0.95647037     0.79100
H1465       H  0.53665077  0.28787862  0.55323355     0.42200
H1466       H  0.47019197  0.24102406  0.61319325     0.41100
H1467       H  0.35834842  0.15008027  0.59258377     0.40800
H1468       H  0.30053854  0.16949352  0.55318962     0.38700
H1469       H  0.29483242  0.16780189  0.95379473     0.41900
H1470       H  0.36782965  0.17589793  0.88753432     0.36600
H1471       H  0.47799552  0.22773516  0.89347261     0.42800
H1472       H  0.53292578  0.27107384  0.93885470     0.39200
H1473       H  0.27110826  0.14343526  0.52901088     0.44100
H1474       H  0.35576542  0.20088612  0.90573827     0.42800
H1475       H  0.56660945  0.28846245  0.96173551     0.43000
H1476       H  0.43354076  0.20725903  0.62660316     0.43300
C1477       C  0.30625083  0.32666627  0.98775898    -0.02100
C1478       C  0.26022914  0.30217586  0.49775408     0.07600
C1479       C  0.25845918  0.28175398  0.52402048    -0.02200
C1480       C  0.27746463  0.26121022  0.52467421    -0.02200
C1481       C  0.29796219  0.26081942  0.49899301     0.07700
C1482       C  0.32687647  0.30973847  0.99598515    -0.02400
Br1483     Br  0.37878632  0.34456860  0.00611611    -0.01000
Br1484     Br  0.33242476  0.37352387  0.96573652    -0.01000
Br1485     Br  0.27632051  0.23446105  0.56077695    -0.01000
Br1486     Br  0.23237322  0.28423874  0.55968850    -0.01000
C1487       C  0.41980122  0.60860925  0.02795959    -0.02100
C1488       C  0.44459584  0.61823728  0.00303865     0.07600
C1489       C  0.43831625  0.59080229  0.98076651    -0.02200
C1490       C  0.40605623  0.55500766  0.98235457    -0.02200
C1491       C  0.37879340  0.54763169  0.00484581     0.07700
C1492       C  0.38715981  0.57350811  0.02880154    -0.02400
Br1493     Br  0.35405150  0.56024060  0.06334249    -0.01000
Br1494     Br  0.43043920  0.64347115  0.06122865    -0.01000
Br1495     Br  0.41002569  0.50375656  0.48181246    -0.01000
Br1496     Br  0.48425084  0.58784533  0.46888083    -0.01000
C1497       C  0.28244414  0.97849088  0.97705548    -0.02100
C1498       C  0.26366825  0.96016115  0.49794834     0.07600
C1499       C  0.26304198  0.98006299  0.52405947    -0.02200
C1500       C  0.28336369  0.01975345  0.52450262    -0.02200
C1501       C  0.30498870  0.03968874  0.49900310     0.07700
C1502       C  0.30453215  0.01760601  0.97750351    -0.02400
Br1503     Br  0.33666165  0.04223236  0.94348991    -0.01000
Br1504     Br  0.27883354  0.95073444  0.94031497    -0.01000
Br1505     Br  0.28345307  0.04669454  0.56055725    -0.01000
Br1506     Br  0.23482431  0.95274887  0.55923553    -0.01000
C1507       C  0.14162212  0.58802892  0.51174145    -0.02100
C1508       C  0.16623059  0.61839192  0.99694523     0.07600
C1509       C  0.18563803  0.61128308  0.97371017    -0.02200
C1510       C  0.18379907  0.57647966  0.97178525    -0.02200
C1511       C  0.16213894  0.54789186  0.99269093     0.07700
C1512       C  0.13884342  0.55249444  0.50848290    -0.02400
Br1513     Br  0.09609617  0.50909341  0.52515548    -0.01000
Br1514     Br  0.10982986  0.59466524  0.54030021    -0.01000
Br1515     Br  0.20812256  0.56663755  0.93834365    -0.01000
Br1516     Br  0.21188198  0.64791050  0.94231704    -0.01000
C1517       C  0.44093059  0.84916872  0.52061381    -0.02100
C1518       C  0.45163237  0.83787666  0.99530506     0.07600
C1519       C  0.42680816  0.82382064  0.97046698    -0.02200
C1520       C  0.39212793  0.82233245  0.97187500    -0.02200
C1521       C  0.38237458  0.83654053  0.99750725     0.07700
C1522       C  0.40838825  0.85225701  0.51927380    -0.02400
Br1523     Br  0.40027333  0.88165488  0.54930321    -0.01000
Br1524     Br  0.47421678  0.87005793  0.55482376    -0.01000
Br1525     Br  0.35761329  0.80003691  0.93860207    -0.01000
Br1526     Br  0.44061713  0.80657677  0.93426845    -0.01000
C1527       C  0.72577537  0.01922600  0.97583005    -0.02100
C1528       C  0.72989874  0.03713376  0.50178934     0.07600
C1529       C  0.72360937  0.01745634  0.52942460    -0.02200
C1530       C  0.70532880  0.97778849  0.52948095    -0.02200
C1531       C  0.69087748  0.95727997  0.50216366     0.07700
C1532       C  0.70400420  0.97970813  0.97542180    -0.02400
Br1533     Br  0.68565030  0.95374429  0.93717899    -0.01000
Br1534     Br  0.74318334  0.04663654  0.93822927    -0.01000
Br1535     Br  0.70004406  0.95139017  0.56686937    -0.01000
Br1536     Br  0.73890619  0.04496509  0.56728207    -0.01000
C1537       C  0.97709025  0.26817760  0.52870177    -0.02100
C1538       C  0.95750481  0.26065424  0.50096498     0.07600
C1539       C  0.97971213  0.27052387  0.97472515    -0.02200
C1540       C  0.01910325  0.29118152  0.97558462    -0.02200
C1541       C  0.03693562  0.30340793  0.50156464     0.07700
C1542       C  0.01667921  0.28882543  0.52895867    -0.02400
Br1543     Br  0.04305390  0.29679183  0.56668819    -0.01000
Br1544     Br  0.94931169  0.24941208  0.56607381    -0.01000
Br1545     Br  0.04761467  0.30314787  0.93829924    -0.01000
Br1546     Br  0.95436775  0.24928229  0.93688253    -0.01000
C1547       C  0.55144526  0.13705018  0.98402710    -0.02100
C1548       C  0.54649728  0.16151796  0.00385870     0.07600
C1549       C  0.57798862  0.19332154  0.52366613    -0.02200
C1550       C  0.61162304  0.19278440  0.52272183    -0.02200
C1551       C  0.61622450  0.16412261  0.00131199     0.07700
C1552       C  0.58681540  0.13936667  0.98198500    -0.02400
Br1553     Br  0.59522073  0.10974976  0.95227870    -0.01000
Br1554     Br  0.51007650  0.09925094  0.96103994    -0.01000
Br1555     Br  0.64908016  0.22042094  0.55329185    -0.01000
Br1556     Br  0.57101786  0.22232138  0.55503948    -0.01000
C1557       C  0.97869845  0.68531088  0.47078255    -0.02100
C1558       C  0.95846932  0.69087967  0.49423421     0.07600
C1559       C  0.97676341  0.72270810  0.01452283    -0.02200
C1560       C  0.01651009  0.74307396  0.01507766    -0.02200
C1561       C  0.03837835  0.73192245  0.49363677     0.07700
C1562       C  0.01808497  0.70525093  0.47065264    -0.02400
Br1563     Br  0.04405188  0.69574508  0.43847378    -0.01000
Br1564     Br  0.95229677  0.65019935  0.43832731    -0.01000
Br1565     Br  0.04216569  0.78251666  0.04461105    -0.01000
Br1566     Br  0.94889907  0.73399490  0.04382485    -0.01000
C1567       C  0.72720605  0.70856621  0.96899594    -0.02100
C1568       C  0.73448283  0.69451244  0.49934068     0.07600
C1569       C  0.72065781  0.70034088  0.52701278    -0.02200
C1570       C  0.69752265  0.71636704  0.52705544    -0.02200
C1571       C  0.69245618  0.73175132  0.50008802     0.07700
C1572       C  0.70682473  0.72792700  0.96917576    -0.02400
Br1573     Br  0.70166365  0.74989918  0.93225501    -0.01000
Br1574     Br  0.74837223  0.70263889  0.93160753    -0.01000
Br1575     Br  0.67094943  0.71492885  0.56364952    -0.01000
Br1576     Br  0.73511422  0.68790645  0.56491049    -0.01000
C1577       C  0.81192682  0.42562904  0.97160412    -0.02100
C1578       C  0.82957361  0.44962600  0.99654970     0.07600
C1579       C  0.84999021  0.44109080  0.01734379    -0.02200
C1580       C  0.84967282  0.40678859  0.01472467    -0.02200
C1581       C  0.82873468  0.38086152  0.99146019     0.07700
C1582       C  0.81084230  0.39121133  0.96937593    -0.02400
Br1583     Br  0.78306005  0.35793081  0.93643874    -0.01000
Br1584     Br  0.78919373  0.44030927  0.94014350    -0.01000
Br1585     Br  0.87499897  0.39426590  0.04484230    -0.01000
Br1586     Br  0.87617266  0.47508244  0.05049173    -0.01000
C1587       C  0.58630231  0.44479760  0.51880658    -0.02100
C1588       C  0.61583919  0.44967203  0.00036357     0.07600
C1589       C  0.60966501  0.42457490  0.97619369    -0.02200
C1590       C  0.57619471  0.39034477  0.97444095    -0.02200
C1591       C  0.54805083  0.38080021  0.99654422     0.07700
C1592       C  0.55088826  0.41180233  0.51732725    -0.02400
Br1593     Br  0.51270628  0.40398444  0.54630974    -0.01000
Br1594     Br  0.59816215  0.47874957  0.55269802    -0.01000
Br1595     Br  0.56841293  0.35735322  0.94054241    -0.01000
Br1596     Br  0.64670750  0.43782187  0.94446037    -0.01000
C1597       C  0.47668487  0.34748756  0.61017434    -0.02100
C1598       C  0.43974017  0.32833814  0.59931704     0.07600
C1599       C  0.41240259  0.33468160  0.61265122    -0.02200
C1600       C  0.42189225  0.35922368  0.63766567    -0.02200
C1601       C  0.45948994  0.38056194  0.64667554     0.07700
C1602       C  0.48692262  0.37514265  0.63261962    -0.02400
Br1603     Br  0.53830608  0.40493429  0.64479239    -0.01000
Br1604     Br  0.51319252  0.33528743  0.59487944    -0.01000
Br1605     Br  0.38353697  0.36284022  0.66010672    -0.01000
Br1606     Br  0.36214765  0.30919266  0.59725586    -0.01000
C1607       C  0.43435421  0.37452756  0.87779023    -0.02100
C1608       C  0.46075767  0.38028329  0.85485026     0.07600
C1609       C  0.47986623  0.36013759  0.85578758    -0.02200
C1610       C  0.47164355  0.33361033  0.87877908    -0.02200
C1611       C  0.44264079  0.32541764  0.89991312     0.07700
C1612       C  0.42343980  0.34537024  0.89877354    -0.02400
Br1613     Br  0.37999796  0.33060160  0.92390947    -0.01000
Br1614     Br  0.41494695  0.40779480  0.88265108    -0.01000
Br1615     Br  0.50176210  0.31020008  0.88183005    -0.01000
Br1616     Br  0.51996970  0.37149198  0.82736618    -0.01000
C1617       C  0.62450414  0.55954134  0.62798575    -0.02100
C1618       C  0.61885818  0.53175446  0.64925046     0.07600
C1619       C  0.63821406  0.51204679  0.64586821    -0.02200
C1620       C  0.66331260  0.52040997  0.62149445    -0.02200
C1621       C  0.66997939  0.54930824  0.60085786     0.07700
C1622       C  0.64904352  0.56755884  0.60339805    -0.02400
Br1623     Br  0.65236883  0.60275183  0.57302912    -0.01000
Br1624     Br  0.60063354  0.58877578  0.63327413    -0.01000
Br1625     Br  0.68467518  0.48884598  0.61437824    -0.01000
Br1626     Br  0.62933869  0.47255810  0.67384452    -0.01000
C1627       C  0.65069985  0.55988538  0.85307396    -0.02100
C1628       C  0.61298980  0.53132439  0.85694213     0.07600
C1629       C  0.60095536  0.51528579  0.88624909    -0.02200
C1630       C  0.62642006  0.52696570  0.91068061    -0.02200
C1631       C  0.66471644  0.55218490  0.90562461     0.07700
C1632       C  0.67638379  0.56957580  0.87703506    -0.02400
Br1633     Br  0.72725315  0.60963757  0.87146674    -0.01000
Br1634     Br  0.66746184  0.58941999  0.81639394    -0.01000
Br1635     Br  0.60785168  0.50891375  0.95102680    -0.01000
Br1636     Br  0.54995928  0.47626980  0.89362213    -0.01000
C1637       C  0.51977800  0.60789309  0.62177656    -0.02100
C1638       C  0.54052043  0.61807450  0.64902381     0.07600
C1639       C  0.57319664  0.65365848  0.65107620    -0.02200
C1640       C  0.58298485  0.67959478  0.62714681    -0.02200
C1641       C  0.56227841  0.66903475  0.59977683     0.07700
C1642       C  0.53245405  0.63199952  0.59666915    -0.02400
Br1643     Br  0.50943969  0.61243021  0.55804604    -0.01000
Br1644     Br  0.47210193  0.56219142  0.61906353    -0.01000
Br1645     Br  0.62639511  0.72874936  0.63126674    -0.01000
Br1646     Br  0.60677253  0.66619253  0.68509482    -0.01000
C1647       C  0.51720308  0.63440584  0.85672348    -0.02100
C1648       C  0.53680888  0.61477089  0.85526909     0.07600
C1649       C  0.56505403  0.62248299  0.87671101    -0.02200
C1650       C  0.57385155  0.64989424  0.89936663    -0.02200
C1651       C  0.55399538  0.66935736  0.90082023     0.07700
C1652       C  0.52471329  0.66048138  0.88011734    -0.02400
Br1653     Br  0.49205872  0.68095987  0.88534531    -0.01000
Br1654     Br  0.47985512  0.62584965  0.82664191    -0.01000
Br1655     Br  0.61374942  0.66121227  0.92772148    -0.01000
Br1656     Br  0.59375551  0.59782435  0.87390819    -0.01000
C1657       C  0.38937985  0.44891160  0.61398975    -0.02100
C1658       C  0.39035746  0.46927480  0.64048915     0.07600
C1659       C  0.36641694  0.48414102  0.64213463    -0.02200
C1660       C  0.33841406  0.47463376  0.62013206    -0.02200
C1661       C  0.33427533  0.45051205  0.59524451     0.07700
C1662       C  0.36075903  0.43840406  0.59211390    -0.02400
Br1663     Br  0.35726569  0.40524570  0.55920395    -0.01000
Br1664     Br  0.42808309  0.43690689  0.60601794    -0.01000
Br1665     Br  0.30747850  0.49704915  0.62469900    -0.01000
Br1666     Br  0.37538368  0.52198097  0.67249897    -0.01000
C1667       C  0.34820467  0.42152289  0.85414686    -0.02100
C1668       C  0.37573903  0.45921985  0.84945303     0.07600
C1669       C  0.37396981  0.48759710  0.86598737    -0.02200
C1670       C  0.34531683  0.47830264  0.88743047    -0.02200
C1671       C  0.32148343  0.44064301  0.89557191     0.07700
C1672       C  0.32216714  0.41213567  0.87813479    -0.02400
Br1673     Br  0.28638572  0.36050780  0.88607951    -0.01000
Br1674     Br  0.34615179  0.38295400  0.82757771    -0.01000
Br1675     Br  0.33615379  0.51685473  0.90297698    -0.01000
Br1676     Br  0.40978498  0.53926381  0.85829846    -0.01000
C1677       C  0.92172317  0.56431264  0.59427229    -0.02100
C1678       C  0.88383305  0.55412995  0.59798651     0.07600
C1679       C  0.86272016  0.52883654  0.62151735    -0.02200
C1680       C  0.88011033  0.51702287  0.64258353    -0.02200
C1681       C  0.91844620  0.52920329  0.63999106     0.07700
C1682       C  0.93817193  0.54989055  0.61398203    -0.02400
Br1683     Br  0.98626453  0.55614161  0.60310180    -0.01000
Br1684     Br  0.95227053  0.59947505  0.56316019    -0.01000
Br1685     Br  0.85010526  0.48008231  0.67281306    -0.01000
Br1686     Br  0.80917470  0.50710307  0.62407563    -0.01000
C1687       C  0.90615618  0.56468111  0.84908258    -0.02100
C1688       C  0.91204804  0.53376195  0.85044286     0.07600
C1689       C  0.90371732  0.51325669  0.87793518    -0.02200
C1690       C  0.89209846  0.52486125  0.90392291    -0.02200
C1691       C  0.88314956  0.55346948  0.90176820     0.07700
C1692       C  0.89124223  0.57400273  0.87446560    -0.02400
Br1693     Br  0.88535512  0.61751422  0.87296677    -0.01000
Br1694     Br  0.91943929  0.59560818  0.81323228    -0.01000
Br1695     Br  0.89131752  0.50292018  0.94259852    -0.01000
Br1696     Br  0.90462845  0.46689085  0.87990806    -0.01000
C1697       C  0.92144706  0.35343305  0.59436475    -0.02100
C1698       C  0.88223637  0.33601129  0.59218281     0.07600
C1699       C  0.86273927  0.34742317  0.61210982    -0.02200
C1700       C  0.88170675  0.37302802  0.63582552    -0.02200
C1701       C  0.92038271  0.38817809  0.63948214     0.07700
C1702       C  0.94042264  0.37974838  0.61772684    -0.02400
Br1703     Br  0.99389124  0.40380636  0.61975619    -0.01000
Br1704     Br  0.94959738  0.34098488  0.56603448    -0.01000
Br1705     Br  0.85514298  0.38969205  0.66193852    -0.01000
Br1706     Br  0.81078130  0.33138347  0.60510625    -0.01000
C1707       C  0.92191225  0.34277989  0.89057831    -0.02100
C1708       C  0.88339720  0.32680196  0.89632636     0.07600
C1709       C  0.86194530  0.33647662  0.87737812    -0.02200
C1710       C  0.87922156  0.36326528  0.85424142    -0.02200
C1711       C  0.91756254  0.37878013  0.84845815     0.07700
C1712       C  0.93829357  0.36669205  0.86545366    -0.02400
Br1713     Br  0.98701852  0.37811235  0.85135545    -0.01000
Br1714     Br  0.95209214  0.33102770  0.91625430    -0.01000
Br1715     Br  0.85022204  0.37816359  0.82980345    -0.01000
Br1716     Br  0.80878661  0.31348312  0.88277347    -0.01000
C1717       C  0.08116633  0.42847305  0.64820599    -0.02100
C1718       C  0.08429937  0.46419753  0.64753667     0.07600
C1719       C  0.10399674  0.48887697  0.62344549    -0.02200
C1720       C  0.12281949  0.47910731  0.60194126    -0.02200
C1721       C  0.11721145  0.44265830  0.60130333     0.07700
C1722       C  0.09706538  0.41753983  0.62477249    -0.02400
Br1723     Br  0.09210519  0.36858174  0.62516147    -0.01000
Br1724     Br  0.05218980  0.39285029  0.67943425    -0.01000
Br1725     Br  0.16120311  0.51739822  0.57687184    -0.01000
Br1726     Br  0.10525249  0.53581574  0.61887570    -0.01000
C1727       C  0.13636453  0.47653282  0.87854709    -0.02100
C1728       C  0.11524723  0.45354074  0.90332111     0.07600
C1729       C  0.07764672  0.44469995  0.90649815    -0.02200
C1730       C  0.06180238  0.45812665  0.88520852    -0.02200
C1731       C  0.08080728  0.47438548  0.85752914     0.07700
C1732       C  0.11885351  0.48511695  0.85511890    -0.02400
Br1733     Br  0.14874585  0.51553287  0.82138531    -0.01000
Br1734     Br  0.19014025  0.50016035  0.87726971    -0.01000
Br1735     Br  0.01556352  0.45640303  0.89622833    -0.01000
Br1736     Br  0.04607135  0.41225184  0.93857699    -0.01000
C1737       C  0.07989697  0.66282544  0.61149500    -0.02100
C1738       C  0.11629756  0.67336513  0.60171839     0.07600
C1739       C  0.13671483  0.65917930  0.61664206    -0.02200
C1740       C  0.12042692  0.63379592  0.64067926    -0.02200
C1741       C  0.08344498  0.62181799  0.64927315     0.07700
C1742       C  0.06395305  0.63791988  0.63598900    -0.02400
Br1743     Br  0.01779182  0.62957627  0.65410404    -0.01000
Br1744     Br  0.05263678  0.68370518  0.59235357    -0.01000
Br1745     Br  0.14953883  0.61753838  0.66338105    -0.01000
Br1746     Br  0.18676289  0.67365866  0.60370408    -0.01000
C1747       C  0.09743235  0.68152251  0.87631468    -0.02100
C1748       C  0.10853813  0.67108552  0.90319294     0.07600
C1749       C  0.10094487  0.63383480  0.90584148    -0.02200
C1750       C  0.08585256  0.60856485  0.88123117    -0.02200
C1751       C  0.07402759  0.61860852  0.85464422     0.07700
C1752       C  0.07929175  0.65517043  0.85262760    -0.02400
Br1753     Br  0.06047344  0.66926677  0.81807650    -0.01000
Br1754     Br  0.10528434  0.73153191  0.87233610    -0.01000
Br1755     Br  0.08534793  0.56158475  0.88315881    -0.01000
Br1756     Br  0.11095598  0.61631574  0.94290845    -0.01000
C1757       C  0.34360015  0.86881569  0.61499260    -0.02100
C1758       C  0.32727813  0.88802580  0.60128221     0.07600
C1759       C  0.33570928  0.92348467  0.61240463    -0.02200
C1760       C  0.36006745  0.93944191  0.63730154    -0.02200
C1761       C  0.37860787  0.92155704  0.64906671     0.07700
C1762       C  0.36990881  0.88602676  0.63833905    -0.02400
Br1763     Br  0.39260389  0.86021500  0.65702989    -0.01000
Br1764     Br  0.32983585  0.81866681  0.60225391    -0.01000
Br1765     Br  0.36572085  0.98395938  0.65700490    -0.01000
Br1766     Br  0.31298380  0.94948931  0.59437108    -0.01000
C1767       C  0.33573617  0.86327292  0.87915567    -0.02100
C1768       C  0.33283649  0.88262344  0.90507358     0.07600
C1769       C  0.35933049  0.92137986  0.90818068    -0.02200
C1770       C  0.38403221  0.94091275  0.88400836    -0.02200
C1771       C  0.38438009  0.92185811  0.85723166     0.07700
C1772       C  0.36159886  0.88274048  0.85578420    -0.02400
Br1773     Br  0.36869181  0.85509675  0.82311593    -0.01000
Br1774     Br  0.30778866  0.80941637  0.87608359    -0.01000
Br1775     Br  0.41705487  0.99416448  0.88781181    -0.01000
Br1776     Br  0.36421001  0.94878426  0.94553926    -0.01000
C1777       C  0.51968989  0.85561193  0.62095391    -0.02100
C1778       C  0.55002756  0.87771758  0.60134186     0.07600
C1779       C  0.56981087  0.91681278  0.60470153    -0.02200
C1780       C  0.55955049  0.93379064  0.62763380    -0.02200
C1781       C  0.52924116  0.91188393  0.64718056     0.07700
C1782       C  0.50964917  0.87267991  0.64403328    -0.02400
Br1783     Br  0.46873637  0.84214794  0.67104520    -0.01000
Br1784     Br  0.49013779  0.80199020  0.61542069    -0.01000
Br1785     Br  0.58942979  0.98690133  0.63365857    -0.01000
Br1786     Br  0.61233676  0.94720048  0.57907188    -0.01000
C1787       C  0.53610247  0.90382518  0.90748502    -0.02100
C1788       C  0.56204452  0.89162713  0.90214342     0.07600
C1789       C  0.57919014  0.89792841  0.87318764    -0.02200
C1790       C  0.56829446  0.91325263  0.84936463    -0.02200
C1791       C  0.53839709  0.92041209  0.85361162     0.07700
C1792       C  0.52249998  0.91557059  0.88308746    -0.02400
Br1793     Br  0.48055792  0.92306694  0.89059717    -0.01000
Br1794     Br  0.52017357  0.90705250  0.94819023    -0.01000
Br1795     Br  0.59734396  0.92769802  0.81222247    -0.01000
Br1796     Br  0.62048288  0.88915867  0.86703114    -0.01000
C1797       C  0.65481493  0.08474050  0.64883764    -0.02100
C1798       C  0.61858496  0.08017013  0.64732667     0.07600
C1799       C  0.60878868  0.09371024  0.62165113    -0.02200
C1800       C  0.63345384  0.10856765  0.59685770    -0.02200
C1801       C  0.67018640  0.11499677  0.59895684     0.07700
C1802       C  0.68099946  0.10381555  0.62551599    -0.02400
Br1803     Br  0.73147868  0.11358486  0.62982886    -0.01000
Br1804     Br  0.66853234  0.06294348  0.68151237    -0.01000
Br1805     Br  0.61618701  0.12028229  0.56039309    -0.01000
Br1806     Br  0.56329114  0.09587221  0.62129764    -0.01000
C1807       C  0.63759549  0.12006274  0.85493270    -0.02100
C1808       C  0.61709948  0.08080483  0.85323820     0.07600
C1809       C  0.62264305  0.05938778  0.87519470    -0.02200
C1810       C  0.64804036  0.07678681  0.89907930    -0.02200
C1811       C  0.66905389  0.11612028  0.90060551     0.07700
C1812       C  0.66294083  0.13772426  0.87890611    -0.02400
Br1813     Br  0.68679509  0.19147182  0.88301425    -0.01000
Br1814     Br  0.63093899  0.14976827  0.82447136    -0.01000
Br1815     Br  0.65436331  0.04606463  0.92883975    -0.01000
Br1816     Br  0.59853006  0.00619335  0.87097100    -0.01000
C1817       C  0.48955092  0.12463257  0.64192178    -0.02100
C1818       C  0.47460323  0.08550504  0.64123207     0.07600
C1819       C  0.45310757  0.06526992  0.61548367    -0.02200
C1820       C  0.44047496  0.08228012  0.59451727    -0.02200
C1821       C  0.45343849  0.12108355  0.59631331     0.07700
C1822       C  0.47997408  0.14241232  0.61919704    -0.02400
Br1823     Br  0.50610815  0.19640954  0.61860799    -0.01000
Br1824     Br  0.52691909  0.15472885  0.67192336    -0.01000
Br1825     Br  0.40333611  0.05107321  0.56470523    -0.01000
Br1826     Br  0.44277578  0.01510215  0.60664071    -0.01000
C1827       C  0.41514896  0.09109302  0.87646785    -0.02100
C1828       C  0.44149386  0.11402782  0.89855126     0.07600
C1829       C  0.47936867  0.12513079  0.89430391    -0.02200
C1830       C  0.48981674  0.10810963  0.87152275    -0.02200
C1831       C  0.46292436  0.08275246  0.85098371     0.07700
C1832       C  0.42568256  0.07481828  0.85303503    -0.02400
Br1833     Br  0.38888056  0.04086407  0.82429858    -0.01000
Br1834     Br  0.36636929  0.08616410  0.87556694    -0.01000
Br1835     Br  0.54125624  0.12092701  0.86749768    -0.01000
Br1836     Br  0.51737642  0.16878033  0.91545703    -0.01000
loop_ 
_geom_bond_atom_site_label_1 
_geom_bond_atom_site_label_2 
_geom_bond_distance 
_geom_bond_site_symmetry_2 
_ccdc_geom_bond_type 
O1          Zr13   2.444       .  S
O1            C3   1.288       .  A
O2          Zr39   2.435       .  S
O2            C3   1.288       .  A
C3          C913   1.481       .  S
O4          Zr16   2.427       .  S
O4            C6   1.284       .  A
O5          Zr40   2.437       .  S
O5            C6   1.288       .  A
C6          C843   1.470       .  S
O7          Zr16   2.449       .  S
O7            C9   1.290       .  A
O8          Zr39   2.404   1_565  S
O8            C9   1.282       .  A
C9          C853   1.479       .  S
O10         Zr13   2.476       .  S
O10          C12   1.294       .  A
O11         Zr40   2.391   1_545  S
O11          C12   1.278       .  A
C12         C900   1.490       .  S
Zr13         O14   2.433       .  S
Zr13         O15   2.435       .  S
Zr13         O19   2.382       .  S
Zr13         O20   2.362       .  S
Zr13         O43   2.364       .  S
Zr13         O45   2.377       .  S
O14          H57   0.990       .  S
O15          H56   0.990       .  S
O15          H60   0.990       .  S
Zr16         O17   2.434       .  S
Zr16         O18   2.433       .  S
Zr16         O20   2.375   1_565  S
Zr16         O19   2.364   1_565  S
Zr16         O44   2.370       .  S
Zr16         O46   2.379       .  S
O17          H58   0.990       .  S
O17          H61   0.990       .  S
O18          H51   0.990       .  S
O19         Zr39   2.378       .  S
O20         Zr40   2.376   1_545  S
O20          H47   0.966       .  S
O21         Zr33   2.440       .  S
O21          C23   1.287       .  A
O22         Zr40   2.429   1_545  S
O22          C23   1.287       .  A
C23         C880   1.496       .  S
O24         Zr36   2.446       .  S
O24          C26   1.288       .  A
O25         Zr39   2.440   1_565  S
O25          C26   1.290       .  A
C26         C873   1.498       .  S
O27         Zr36   2.447       .  S
O27          C29   1.288       .  A
O28         Zr40   2.391       .  S
O28          C29   1.280       .  A
C29         C863   1.467       .  S
O30         Zr33   2.443       .  S
O30          C32   1.288       .  A
O31         Zr39   2.388       .  S
O31          C32   1.279       .  A
C32         C890   1.464       .  S
Zr33         O34   2.437       .  S
Zr33         O35   2.433       .  S
Zr33         O41   2.369   1_545  S
Zr33         O42   2.362   1_545  S
Zr33         O45   2.374       .  S
Zr33         O43   2.384       .  S
O34          H54   0.989       .  S
O34          H59   0.990       .  S
O35          H55   0.990       .  S
Zr36         O37   2.434       .  S
Zr36         O38   2.436       .  S
Zr36         O42   2.379       .  S
Zr36         O41   2.373       .  S
Zr36         O46   2.370       .  S
Zr36         O44   2.374       .  S
O37          H53   0.990       .  S
O38          H52   0.990       .  S
O38          H62   0.989       .  S
Zr39         O42   2.379   1_545  S
Zr39         O44   2.381   1_545  S
Zr39         O45   2.388       .  S
Zr40         O41   2.382       .  S
Zr40         O43   2.379   1_565  S
Zr40         O46   2.378       .  S
O41          H49   0.965       .  S
O44          H48   0.966       .  S
O45          H50   0.966       .  S
O63         Zr75   2.442       .  S
O63          C65   1.287       .  A
O64        Zr101   2.428   1_455  S
O64          C65   1.287       .  A
C65         C833   1.491       .  S
O66         Zr78   2.461       .  S
O66          C68   1.292       .  A
O67        Zr102   2.410   1_655  S
O67          C68   1.282       .  A
C68         C763   1.487       .  S
O69         Zr78   2.461       .  S
O69          C71   1.292       .  A
O70        Zr101   2.385       .  S
O70          C71   1.279       .  A
C71         C770   1.481       .  S
O72         Zr75   2.420       .  S
O72          C74   1.282       .  A
O73        Zr102   2.433       .  S
O73          C74   1.287       .  A
C74         C823   1.463       .  S
Zr75         O76   2.433       .  S
Zr75         O77   2.436       .  S
Zr75         O81   2.362   1_455  S
Zr75         O82   2.375       .  S
Zr75        O105   2.382       .  S
Zr75        O107   2.371       .  S
O76         H119   0.990       .  S
O77         H118   0.990       .  S
O77         H122   0.990       .  S
Zr78         O79   2.437       .  S
Zr78         O80   2.434       .  S
Zr78         O82   2.374   1_655  S
Zr78         O81   2.369       .  S
Zr78        O106   2.380       .  S
Zr78        O108   2.369       .  S
O79         H120   0.990       .  S
O79         H123   0.990       .  S
O80         H113   0.990       .  S
O81        Zr101   2.369       .  S
O82        Zr102   2.380       .  S
O82         H109   0.966       .  S
O83         Zr95   2.454       .  S
O83          C85   1.290       .  A
O84        Zr102   2.412       .  S
O84          C85   1.284       .  A
C85         C800   1.480       .  S
O86         Zr98   2.436       .  S
O86          C88   1.286       .  A
O87        Zr101   2.440       .  S
O87          C88   1.289       .  A
C88         C793   1.477       .  S
O89         Zr98   2.463       .  S
O89          C91   1.291       .  A
O90        Zr102   2.415   1_655  S
O90          C91   1.284       .  A
C91         C783   1.484       .  S
O92         Zr95   2.470       .  S
O92          C94   1.294       .  A
O93        Zr101   2.404   1_455  S
O93          C94   1.280       .  A
C94         C813   1.493       .  S
Zr95         O96   2.433       .  S
Zr95         O97   2.432       .  S
Zr95        O103   2.379       .  S
Zr95        O104   2.364   1_455  S
Zr95        O107   2.373       .  S
Zr95        O105   2.384       .  S
O96         H116   0.989       .  S
O96         H121   0.990       .  S
O97         H117   0.989       .  S
Zr98         O99   2.435       .  S
Zr98        O100   2.436       .  S
Zr98        O104   2.374       .  S
Zr98        O103   2.360   1_655  S
Zr98        O108   2.369       .  S
Zr98        O106   2.384       .  S
O99         H115   0.990       .  S
O100        H114   0.990       .  S
O100        H124   0.990       .  S
Zr101       O104   2.370       .  S
Zr101       O106   2.390       .  S
Zr101       O107   2.379   1_655  S
Zr102       O103   2.381       .  S
Zr102       O105   2.383       .  S
Zr102       O108   2.380   1_455  S
O103        H111   0.965       .  S
O106        H110   0.966       .  S
O107        H112   0.966       .  S
O125       Zr137   2.449       .  S
O125        C127   1.290       .  A
O126       Zr163   2.409       .  S
O126        C127   1.284       .  A
C127        C750   1.480       .  S
O128       Zr140   2.439       .  S
O128        C130   1.286       .  A
O129       Zr164   2.418       .  S
O129        C130   1.284       .  A
C130        C683   1.466       .  S
O131       Zr140   2.444       .  S
O131        C133   1.288       .  A
O132       Zr163   2.403       .  S
O132        C133   1.283       .  A
C133        C690   1.481       .  S
O134       Zr137   2.457       .  S
O134        C136   1.292       .  A
O135       Zr164   2.412       .  S
O135        C136   1.283       .  A
C136        C740   1.490       .  S
Zr137       O138   2.434       .  S
Zr137       O139   2.436       .  S
Zr137       O143   2.375       .  S
Zr137       O144   2.372       .  S
Zr137       O167   2.366       .  S
Zr137       O169   2.377       .  S
O138        H181   0.990       .  S
O139        H180   0.990       .  S
O139        H184   0.990       .  S
Zr140       O141   2.436       .  S
Zr140       O142   2.434       .  S
Zr140       O144   2.374       .  S
Zr140       O143   2.369       .  S
Zr140       O168   2.377       .  S
Zr140       O170   2.373       .  S
O141        H182   0.990       .  S
O141        H185   0.990       .  S
O142        H175   0.990       .  S
O143       Zr163   2.379       .  S
O144       Zr164   2.378       .  S
O144        H171   0.965       .  S
O145       Zr157   2.455       .  S
O145        C147   1.290       .  A
O146       Zr164   2.417       .  S
O146        C147   1.285       .  A
C147        C720   1.493       .  S
O148       Zr160   2.439       .  S
O148        C150   1.284       .  A
O149       Zr163   2.431       .  S
O149        C150   1.285       .  A
C150        C710   1.515       .  S
O151       Zr160   2.426       .  S
O151        C153   1.284       .  A
O152       Zr164   2.411       .  S
O152        C153   1.284       .  A
C153        C700   1.467       .  S
O154       Zr157   2.436       .  S
O154        C156   1.286       .  A
O155       Zr163   2.419       .  S
O155        C156   1.285       .  A
C156        C730   1.467       .  S
Zr157       O158   2.431       .  S
Zr157       O159   2.435       .  S
Zr157       O165   2.370       .  S
Zr157       O166   2.366       .  S
Zr157       O169   2.380       .  S
Zr157       O167   2.372       .  S
O158        H178   0.989       .  S
O158        H183   0.990       .  S
O159        H179   0.990       .  S
Zr160       O161   2.432       .  S
Zr160       O162   2.435       .  S
Zr160       O166   2.359       .  S
Zr160       O165   2.371       .  S
Zr160       O170   2.371       .  S
Zr160       O168   2.370       .  S
O161        H177   0.990       .  S
O162        H176   0.990       .  S
O162        H186   0.990       .  S
Zr163       O166   2.366       .  S
Zr163       O168   2.381       .  S
Zr163       O169   2.385       .  S
Zr164       O165   2.375       .  S
Zr164       O167   2.378       .  S
Zr164       O170   2.378       .  S
O165        H173   0.966       .  S
O168        H172   0.966       .  S
O169        H174   0.966       .  S
O187       Zr199   2.429       .  S
O187       C1107   1.285       .  A
O188      Zr1143   2.432       .  S
O188       C1107   1.287       .  A
C189       O1105   1.287       .  A
C189       O1106   1.288       .  A
C189        C660   1.483       .  S
O190       Zr202   2.455       .  S
O190        C192   1.291       .  A
O191       Zr226   2.423       .  S
O191        C192   1.285       .  A
C192        C713   1.498       .  S
O193       Zr202   2.440       .  S
O193        C195   1.287       .  A
O194       Zr225   2.427       .  S
O194        C195   1.287       .  A
C195        C773   1.481       .  S
O196       Zr199   2.434       .  S
O196       C1116   1.286       .  A
O197       Zr226   2.455       .  S
O197        C198   1.291       .  A
C198       O1114   1.289       .  A
C198        C670   1.493       .  S
Zr199       O201   2.435       .  S
Zr199      O1118   2.433   1_554  S
Zr199       O229   2.355       .  S
Zr199       O231   2.351       .  S
Zr199      O1123   2.371   1_554  S
Zr199      O1124   2.365   1_554  S
O200      Zr1117   2.434       .  S
O200        H243   0.990       .  S
O201        H242   0.989       .  S
O201        H246   0.990       .  S
Zr202       O203   2.438       .  S
Zr202       O204   2.432       .  S
Zr202       O206   2.360       .  S
Zr202       O205   2.373       .  S
Zr202       O230   2.376       .  S
Zr202       O232   2.374       .  S
O203        H244   0.990       .  S
O203        H247   0.990       .  S
O204        H237   0.990       .  S
O205       Zr225   2.386       .  S
O205      Zr1117   2.379       .  S
O206       Zr226   2.381       .  S
O206      Zr1117   2.368       .  S
O206        H233   0.965       .  S
O207       Zr219   2.438       .  S
O207        C209   1.286       .  A
O208      Zr1144   2.415       .  S
O208        C209   1.285       .  A
C209        C703   1.475       .  S
O210       Zr222   2.498       .  S
O210       C1130   1.298       .  A
O211       Zr225   2.433       .  S
O211       C1130   1.289       .  A
C212       O1128   1.298       .  A
C212       O1129   1.290       .  A
C212        C640   1.504       .  S
O213       Zr222   2.489       .  S
O213       C1133   1.297       .  A
O214       Zr226   2.428       .  S
O214       C1133   1.288       .  A
C215       O1131   1.298       .  A
C215       O1132   1.291   1_556  A
C215        C650   1.503       .  S
O216       Zr219   2.443       .  S
O216        C218   1.287       .  A
O217      Zr1143   2.431       .  S
O217        C218   1.288       .  A
C218        C760   1.483       .  S
Zr219       O220   2.435       .  S
Zr219       O221   2.437       .  S
Zr219       O227   2.371       .  S
Zr219       O228   2.360       .  S
Zr219       O231   2.385       .  S
Zr219       O229   2.376       .  S
O220        H240   0.990       .  S
O220        H245   0.990       .  S
O221        H241   0.990       .  S
Zr222       O224   2.437       .  S
Zr222      O1141   2.435       .  S
Zr222       O232   2.389       .  S
Zr222       O230   2.379       .  S
Zr222      O1146   2.386       .  S
Zr222      O1145   2.388       .  S
O223      Zr1140   2.434   1_554  S
O223        H239   0.990       .  S
O224        H238   0.990       .  S
O224        H248   0.990       .  S
Zr225      O1106   2.437       .  S
Zr225      O1135   2.425       .  S
Zr225       O230   2.391       .  S
Zr225      O1146   2.388       .  S
Zr225      O1149   2.388       .  S
Zr226      O1126   2.421       .  S
Zr226       O232   2.394       .  S
Zr226      O1145   2.400       .  S
Zr226      O1147   2.381       .  S
O227      Zr1140   2.392   1_554  S
O227      Zr1144   2.398       .  S
O227        H235   0.966       .  S
O228      Zr1140   2.388   1_554  S
O228      Zr1143   2.388       .  S
O229      Zr1144   2.382       .  S
O230        H234   0.966       .  S
O231      Zr1143   2.393       .  S
O231        H236   0.964       .  S
O249       Zr261   2.432       .  S
O249       C1169   1.286       .  A
O250      Zr1205   2.457       .  S
O250       C1169   1.291       .  A
C251       O1167   1.285       .  A
C251       O1168   1.296       .  A
C251        C633   1.499       .  S
O252       Zr264   2.449       .  S
O252        C254   1.288       .  A
O253       Zr288   2.447       .  S
O253        C254   1.290       .  A
C254        C790   1.488       .  S
O255       Zr264   2.423       .  S
O255        C257   1.284       .  A
O256       Zr287   2.395       .  S
O256        C257   1.281       .  A
C257        C893   1.464       .  S
O258      Zr1179   2.423       .  S
O258        C260   1.284       .  A
O259       Zr288   2.473       .  S
O259        C260   1.295       .  A
C260        C663   1.496       .  S
Zr261      O1176   2.420       .  S
Zr261       O263   2.434   1_556  S
Zr261      O1180   2.435       .  S
Zr261       O291   2.366   1_556  S
Zr261       O293   2.365   1_556  S
Zr261      O1185   2.356       .  S
Zr261      O1186   2.360       .  S
O262      Zr1179   2.435       .  S
O262        H305   0.990       .  S
O263        H304   0.990       .  S
O263        H308   0.989       .  S
Zr264       O265   2.439       .  S
Zr264       O266   2.436       .  S
Zr264       O268   2.382       .  S
Zr264       O267   2.383       .  S
Zr264       O292   2.366       .  S
Zr264       O294   2.353       .  S
O265        H306   0.988       .  S
O265        H309   0.990       .  S
O266        H299   0.990       .  S
O267       Zr287   2.384       .  S
O267      Zr1179   2.357       .  S
O268       Zr288   2.387       .  S
O268      Zr1179   2.358       .  S
O268        H295   0.964       .  S
O269       Zr281   2.438       .  S
O269        C271   1.288       .  A
O270      Zr1206   2.432   1_554  S
O270        C271   1.288       .  A
C271        C780   1.487       .  S
O272       Zr284   2.499       .  S
O272       C1192   1.299       .  A
O273       Zr287   2.447       .  S
O273       C1192   1.292       .  A
C274       O1190   1.297       .  A
C274       O1191   1.289       .  A
C274        C610   1.495       .  S
O275       Zr284   2.484       .  S
O275       C1195   1.296       .  A
O276       Zr288   2.444       .  S
O276       C1195   1.292       .  A
C277       O1193   1.293       .  A
C277       O1194   1.293   1_554  A
C277        C620   1.493       .  S
O278       Zr281   2.453       .  S
O278        C280   1.290       .  A
O279      Zr1205   2.431   1_554  S
O279        C280   1.287       .  A
C280        C883   1.491       .  S
Zr281       O282   2.438       .  S
Zr281       O283   2.433       .  S
Zr281       O289   2.373       .  S
Zr281       O290   2.367       .  S
Zr281       O293   2.370       .  S
Zr281       O291   2.375       .  S
O282        H302   0.990       .  S
O282        H307   0.990       .  S
O283        H303   0.990       .  S
Zr284       O286   2.437       .  S
Zr284      O1203   2.434       .  S
Zr284       O294   2.389       .  S
Zr284       O292   2.383       .  S
Zr284      O1208   2.387       .  S
Zr284      O1207   2.392       .  S
O285      Zr1202   2.434       .  S
O285        H301   0.990       .  S
O286        H300   0.990       .  S
O286        H310   0.990       .  S
Zr287      O1168   2.477       .  S
Zr287      O1197   2.437       .  S
Zr287       O292   2.410       .  S
Zr287      O1208   2.392       .  S
Zr287      O1211   2.378       .  S
Zr288      O1188   2.431       .  S
Zr288       O294   2.400       .  S
Zr288      O1207   2.407       .  S
Zr288      O1209   2.378       .  S
O289      Zr1202   2.385       .  S
O289      Zr1206   2.401   1_554  S
O289        H297   0.965       .  S
O290      Zr1202   2.383       .  S
O290      Zr1205   2.393   1_554  S
O291      Zr1206   2.383   1_554  S
O292        H296   0.966       .  S
O293      Zr1205   2.380   1_554  S
O293        H298   0.965       .  S
O311       Zr323   2.452       .  S
O311       C1231   1.290       .  A
O312      Zr1267   2.457       .  S
O312       C1231   1.291       .  A
C313       O1229   1.284       .  A
C313       O1230   1.292       .  A
C313        C603   1.492       .  S
O314       Zr326   2.449       .  S
O314        C316   1.287       .  A
O315       Zr350   2.418       .  S
O315        C316   1.285       .  A
C316        C830   1.488       .  S
O317       Zr326   2.443       .  S
O317        C319   1.288       .  A
O318       Zr349   2.417       .  S
O318        C319   1.284       .  A
C319        C850   1.494       .  S
O320       Zr323   2.437       .  S
O320       C1240   1.288       .  A
O321       Zr350   2.463       .  S
O321        C322   1.292       .  A
C322       O1238   1.283       .  A
C322        C590   1.493       .  S
Zr323       O325   2.434       .  S
Zr323      O1242   2.429   1_554  S
Zr323       O353   2.367       .  S
Zr323       O355   2.358       .  S
Zr323      O1247   2.359   1_554  S
Zr323      O1248   2.372   1_554  S
O324      Zr1241   2.426       .  S
O324        H367   0.990       .  S
O325        H366   0.990       .  S
O325        H370   0.989       .  S
Zr326       O327   2.435       .  S
Zr326       O328   2.437       .  S
Zr326       O330   2.371       .  S
Zr326       O329   2.376       .  S
Zr326       O354   2.368       .  S
Zr326       O356   2.362       .  S
O327        H368   0.990       .  S
O327        H371   0.990       .  S
O328        H361   0.990       .  S
O329       Zr349   2.380       .  S
O329      Zr1241   2.365       .  S
O330       Zr350   2.383       .  S
O330      Zr1241   2.369       .  S
O330        H357   0.965       .  S
O331       Zr343   2.410       .  S
O331        C333   1.281       .  A
O332      Zr1268   2.428       .  S
O332        C333   1.287       .  A
C333        C820   1.461       .  S
O334       Zr346   2.484       .  S
O334       C1254   1.296       .  A
O335       Zr349   2.432       .  S
O335       C1254   1.289       .  A
C336       O1252   1.294       .  A
C336       O1253   1.289       .  A
C336        C580   1.482       .  S
O337       Zr346   2.504       .  S
O337       C1257   1.301       .  A
O338       Zr350   2.425       .  S
O338       C1257   1.288       .  A
C339       O1255   1.298       .  A
C339       O1256   1.292   1_556  A
C339        C643   1.511       .  S
O340       Zr343   2.427       .  S
O340        C342   1.284       .  A
O341      Zr1267   2.440       .  S
O341        C342   1.288       .  A
C342        C840   1.472       .  S
Zr343       O344   2.436       .  S
Zr343       O345   2.433       .  S
Zr343       O351   2.373       .  S
Zr343       O352   2.356       .  S
Zr343       O355   2.373       .  S
Zr343       O353   2.374       .  S
O344        H364   0.990       .  S
O344        H369   0.990       .  S
O345        H365   0.990       .  S
Zr346       O348   2.436       .  S
Zr346      O1265   2.437       .  S
Zr346       O356   2.374       .  S
Zr346       O354   2.386       .  S
Zr346      O1270   2.393       .  S
Zr346      O1269   2.389       .  S
O347      Zr1264   2.435       .  S
O347        H363   0.990       .  S
O348        H362   0.990       .  S
O348        H372   0.990       .  S
Zr349      O1230   2.463       .  S
Zr349      O1259   2.442       .  S
Zr349       O354   2.404       .  S
Zr349      O1270   2.398       .  S
Zr349      O1273   2.376       .  S
Zr350      O1250   2.427       .  S
Zr350       O356   2.391       .  S
Zr350      O1269   2.400       .  S
Zr350      O1271   2.380       .  S
O351      Zr1264   2.383       .  S
O351      Zr1268   2.399       .  S
O351        H359   0.966       .  S
O352      Zr1264   2.389       .  S
O352      Zr1267   2.393       .  S
O353      Zr1268   2.384       .  S
O354        H358   0.966       .  S
O355      Zr1267   2.374       .  S
O355        H360   0.963       .  S
O373       Zr385   2.448       .  S
O373        C375   1.289       .  A
O374       Zr411   2.453       .  S
O374        C375   1.292       .  A
C375        C870   1.500       .  S
O376       Zr388   2.421   1_554  S
O376       C1296   1.284       .  A
O377       Zr412   2.455       .  S
O377        C378   1.291       .  A
C378       O1294   1.283       .  A
C378        C570   1.492       .  S
O379       Zr388   2.437       .  S
O379       C1299   1.286       .  A
O380      Zr1329   2.454       .  S
O380       C1299   1.290   1_554  A
C381       O1297   1.285       .  A
C381       O1298   1.291       .  A
C381        C600   1.489       .  S
O382       Zr385   2.438       .  S
O382        C384   1.288       .  A
O383       Zr412   2.434       .  S
O383        C384   1.288       .  A
C384        C733   1.474       .  S
Zr385       O386   2.434       .  S
Zr385       O387   2.434       .  S
Zr385       O391   2.372       .  S
Zr385       O392   2.372       .  S
Zr385       O415   2.375       .  S
Zr385       O417   2.372       .  S
O386        H429   0.990       .  S
O387        H428   0.990       .  S
O387        H432   0.990       .  S
Zr388       O390   2.435   1_556  S
Zr388      O1307   2.437       .  S
Zr388       O416   2.351   1_556  S
Zr388       O418   2.381   1_556  S
Zr388      O1310   2.358       .  S
Zr388      O1309   2.364       .  S
O389      Zr1306   2.437       .  S
O389        H430   0.989       .  S
O389        H433   0.990       .  S
O390        H423   0.990       .  S
O391       Zr411   2.378       .  S
O391      Zr1306   2.367       .  S
O392       Zr412   2.379       .  S
O392      Zr1306   2.353       .  S
O392        H419   0.963       .  S
O393       Zr405   2.490       .  S
O393       C1313   1.298       .  A
O394       Zr412   2.423       .  S
O394       C1313   1.287       .  A
C395       O1311   1.298       .  A
C395       O1312   1.291       .  A
C395        C653   1.503       .  S
O396       Zr408   2.424       .  S
O396        C398   1.284       .  A
O397      Zr1329   2.426       .  S
O397        C398   1.287       .  A
C398        C860   1.473       .  S
O399       Zr408   2.452       .  S
O399        C401   1.288       .  A
O400      Zr1330   2.420   1_554  S
O400        C401   1.284       .  A
C401        C723   1.487       .  S
O402       Zr405   2.496       .  S
O402       C1322   1.298       .  A
O403       Zr411   2.430       .  S
O403       C1322   1.288       .  A
C404       O1320   1.299       .  A
C404       O1321   1.288       .  A
C404        C613   1.499       .  S
Zr405       O407   2.434       .  S
Zr405      O1324   2.437       .  S
Zr405       O417   2.387       .  S
Zr405       O415   2.391       .  S
Zr405      O1331   2.382       .  S
Zr405      O1332   2.381       .  S
O406      Zr1323   2.434       .  S
O406        H426   0.990       .  S
O406        H431   0.990       .  S
O407        H427   0.990       .  S
Zr408       O409   2.434       .  S
Zr408       O410   2.438       .  S
Zr408       O414   2.378       .  S
Zr408       O413   2.362       .  S
Zr408       O418   2.368       .  S
Zr408       O416   2.384       .  S
O409        H425   0.990       .  S
O410        H424   0.990       .  S
O410        H434   0.990       .  S
Zr411      O1298   2.454       .  S
Zr411      O1315   2.431       .  S
Zr411       O417   2.396       .  S
Zr411      O1332   2.398       .  S
Zr411      O1334   2.387       .  S
Zr412      O1318   2.433       .  S
Zr412       O415   2.399       .  S
Zr412      O1331   2.394       .  S
Zr412      O1336   2.387       .  S
O413      Zr1323   2.390       .  S
O413      Zr1330   2.395   1_554  S
O413        H421   0.966       .  S
O414      Zr1323   2.382       .  S
O414      Zr1329   2.395       .  S
O416      Zr1329   2.388       .  S
O416        H420   0.965       .  S
O417        H422   0.966       .  S
O418      Zr1330   2.382   1_554  S
O435       Zr447   2.448       .  S
O435       C1355   1.289       .  A
O436      Zr1391   2.453   1_556  S
O436       C1355   1.289       .  A
C437       O1353   1.288       .  A
C437       O1354   1.290       .  A
C437        C593   1.502       .  S
O438       Zr450   2.417       .  S
O438        C440   1.279       .  A
O439       Zr474   2.437       .  S
O439        C440   1.289       .  A
C440        C753   1.469       .  S
O441       Zr450   2.428       .  S
O441        C443   1.283       .  A
O442       Zr473   2.436       .  S
O442        C443   1.288       .  A
C443        C810   1.496       .  S
O444       Zr447   2.440   1_554  S
O444       C1364   1.288       .  A
O445       Zr474   2.448       .  S
O445        C446   1.289       .  A
C446       O1362   1.289       .  A
C446        C573   1.501       .  S
Zr447       O449   2.435   1_556  S
Zr447      O1366   2.434       .  S
Zr447       O479   2.364   1_556  S
Zr447      O1371   2.363       .  S
Zr447      O1372   2.358       .  S
Zr447       O477   2.276   1_556  S
O448      Zr1365   2.435       .  S
O448        H491   0.990       .  S
O449        H490   0.990       .  S
O449        H494   0.991       .  S
Zr450       O451   2.442       .  S
Zr450       O452   2.435       .  S
Zr450       O454   2.387       .  S
Zr450       O453   2.367       .  S
Zr450       O478   2.369       .  S
Zr450       O480   2.367       .  S
O451        H492   0.991       .  S
O451        H495   0.991       .  S
O452        H485   0.991       .  S
O453       Zr473   2.380       .  S
O453      Zr1365   2.361       .  S
O454       Zr474   2.390       .  S
O454      Zr1365   2.361       .  S
O454        H481   0.952       .  S
O455       Zr467   2.425       .  S
O455        C457   1.284       .  A
O456      Zr1392   2.454   1_554  S
O456        C457   1.291       .  A
C457        C743   1.498       .  S
O458       Zr470   2.487       .  S
O458       C1378   1.297       .  A
O459       Zr473   2.457       .  S
O459       C1378   1.294       .  A
C460       O1376   1.298       .  A
C460       O1377   1.289       .  A
C460        C623   1.489       .  S
O461       Zr470   2.476       .  S
O461       C1381   1.295       .  A
O462       Zr474   2.431       .  S
O462       C1381   1.290       .  A
C463       O1379   1.297       .  A
C463       O1380   1.284       .  A
C463        C560   1.518       .  S
O464       Zr467   2.408       .  S
O464        C466   1.278       .  A
O465      Zr1391   2.441       .  S
O465        C466   1.290       .  A
C466        C803   1.468       .  S
Zr467       O468   2.434       .  S
Zr467       O469   2.433       .  S
Zr467       O475   2.355       .  S
Zr467       O476   2.354       .  S
Zr467       O479   2.382       .  S
Zr467       O477   2.284       .  S
O468        H488   0.990       .  S
O468        H493   0.990       .  S
O469        H489   0.990       .  S
Zr470       O472   2.435       .  S
Zr470      O1389   2.435       .  S
Zr470       O480   2.389       .  S
Zr470       O478   2.387       .  S
Zr470      O1394   2.378       .  S
Zr470      O1393   2.391       .  S
O471      Zr1388   2.434   1_554  S
O471        H487   0.990       .  S
O472        H486   0.990       .  S
O472        H496   0.990       .  S
Zr473      O1354   2.452       .  S
Zr473      O1383   2.431       .  S
Zr473       O478   2.397       .  S
Zr473      O1394   2.393       .  S
Zr473      O1397   2.390       .  S
Zr474      O1374   2.442       .  S
Zr474       O480   2.403       .  S
Zr474      O1393   2.396       .  S
Zr474      O1395   2.374       .  S
O475      Zr1388   2.389   1_554  S
O475      Zr1392   2.395   1_554  S
O475        H483   0.966       .  S
O476      Zr1388   2.387   1_554  S
O476      Zr1391   2.395       .  S
O477      Zr1392   2.276   1_554  S
O478        H482   0.967       .  S
O479      Zr1391   2.388       .  S
O479        H484   0.963       .  S
O497       Zr509   2.429       .  S
O497        C499   1.284       .  A
O498       Zr535   2.456       .  S
O498        C499   1.293       .  A
C499        C910   1.480       .  S
O500      Zr1430   2.423       .  S
O500        C502   1.284       .  A
O501       Zr536   2.472       .  S
O501        C502   1.294       .  A
C502        C673   1.495       .  S
O503       Zr512   2.451       .  S
O503       C1423   1.291   1_556  A
O504      Zr1453   2.453       .  S
O504       C1423   1.290   1_556  A
C505       O1421   1.290       .  A
C505       O1422   1.290       .  A
C505        C630   1.499       .  S
O506       Zr509   2.440       .  S
O506        C508   1.288       .  A
O507       Zr536   2.432       .  S
O507        C508   1.287       .  A
C508        C693   1.485       .  S
Zr509       O510   2.435       .  S
Zr509       O511   2.434       .  S
Zr509       O515   2.376       .  S
Zr509       O516   2.366       .  S
Zr509       O539   2.368       .  S
Zr509       O541   2.376       .  S
O510        H553   0.990       .  S
O511        H552   0.990       .  S
O511        H556   0.990       .  S
Zr512      O1418   2.453       .  S
Zr512       O514   2.432   1_556  S
Zr512      O1431   2.432       .  S
Zr512       O540   2.355   1_556  S
Zr512       O542   2.367   1_556  S
Zr512      O1434   2.356       .  S
Zr512      O1433   2.364       .  S
O513      Zr1430   2.433       .  S
O513        H554   0.989       .  S
O513        H557   0.990       .  S
O514        H547   0.990       .  S
O515       Zr535   2.378       .  S
O515      Zr1430   2.357       .  S
O516       Zr536   2.379       .  S
O516      Zr1430   2.363       .  S
O516        H543   0.965       .  S
O517       Zr529   2.478       .  S
O517       C1437   1.294       .  A
O518       Zr536   2.433       .  S
O518       C1437   1.289       .  A
C519       O1435   1.299       .  A
C519       O1436   1.278   1_554  A
C519        C563   1.527   1_554  S
O520       Zr532   2.429       .  S
O520        C522   1.283       .  A
O521      Zr1453   2.442   1_554  S
O521        C522   1.290       .  A
C522        C903   1.487       .  S
O523       Zr532   2.419       .  S
O523        C525   1.282       .  A
O524      Zr1454   2.428   1_554  S
O524        C525   1.286       .  A
C525        C680   1.465       .  S
O526       Zr529   2.482       .  S
O526       C1446   1.297       .  A
O527       Zr535   2.438       .  S
O527       C1446   1.291       .  A
C528       O1444   1.297       .  A
C528       O1445   1.288       .  A
C528        C583   1.488       .  S
Zr529       O531   2.433       .  S
Zr529      O1448   2.437       .  S
Zr529       O541   2.386       .  S
Zr529       O539   2.385       .  S
Zr529      O1455   2.384       .  S
Zr529      O1456   2.385       .  S
O530      Zr1447   2.436       .  S
O530        H550   0.990       .  S
O530        H555   0.990       .  S
O531        H551   0.990       .  S
Zr532       O533   2.436       .  S
Zr532       O534   2.441       .  S
Zr532       O538   2.357       .  S
Zr532       O537   2.357       .  S
Zr532       O542   2.379       .  S
Zr532       O540   2.381       .  S
O533        H549   0.990       .  S
O534        H548   0.989       .  S
O534        H558   0.990       .  S
Zr535      O1422   2.449       .  S
Zr535      O1439   2.452       .  S
Zr535       O541   2.403       .  S
Zr535      O1456   2.398       .  S
Zr535      O1458   2.389       .  S
Zr536      O1442   2.414       .  S
Zr536       O539   2.391       .  S
Zr536      O1455   2.401       .  S
Zr536      O1460   2.384       .  S
O537      Zr1447   2.384       .  S
O537      Zr1454   2.397   1_554  S
O537        H545   0.966       .  S
O538      Zr1447   2.394       .  S
O538      Zr1453   2.406   1_554  S
O540      Zr1453   2.388   1_554  S
O540        H544   0.964       .  S
O541        H546   0.966       .  S
O542      Zr1454   2.372   1_554  S
C559        C564   1.407       .  A
C559       C1478   1.408       .  A
C559       Br566   1.926       .  S
C560        C561   1.422       .  A
C560       C1477   1.414       .  A
C561        C562   1.433   1_556  A
C561       Br568   1.930   1_556  S
C562        C563   1.429   1_554  A
C562       Br567   1.932       .  S
C563       C1482   1.428       .  A
C564       C1481   1.407       .  A
C564       Br565   1.923       .  S
C569        C570   1.411       .  A
C569        C574   1.403       .  A
C569       Br576   1.936       .  S
C570        C571   1.414       .  A
C571        C572   1.419       .  A
C571      Br1496   1.928       .  S
C572        C573   1.418       .  A
C572      Br1495   1.927       .  S
C573        C574   1.415       .  A
C574       Br575   1.931       .  S
Br577      C1490   1.924       .  S
Br578      C1489   1.925       .  S
C579        C584   1.409   1_565  A
C579       C1498   1.406       .  A
C579       Br586   1.930       .  S
C580        C581   1.412       .  A
C580       C1497   1.404   1_554  A
C581        C582   1.418   1_565  A
C581       Br588   1.926       .  S
C582        C583   1.413       .  A
C582       Br587   1.926       .  S
C583       C1502   1.410   1_554  A
C584       C1501   1.411       .  A
C584       Br585   1.913       .  S
C589        C594   1.423       .  A
C589       C1508   1.416   1_554  A
C589       Br596   1.928       .  S
C590        C591   1.412       .  A
C590       C1507   1.413       .  A
C591        C592   1.404       .  A
C591       Br598   1.932       .  S
C592        C593   1.415       .  A
C592       Br597   1.935       .  S
C593       C1512   1.419       .  A
C594       C1511   1.418   1_554  A
C594       Br595   1.926       .  S
C599        C604   1.420       .  A
C599       C1518   1.413   1_554  A
C599       Br606   1.924       .  S
C600        C601   1.411       .  A
C600       C1517   1.413       .  A
C601        C602   1.406       .  A
C601       Br608   1.936       .  S
C602        C603   1.413       .  A
C602       Br607   1.927       .  S
C603       C1522   1.412       .  A
C604       C1521   1.415   1_554  A
C604       Br605   1.923       .  S
C609        C614   1.416   1_545  A
C609       C1528   1.413       .  A
C609       Br616   1.926       .  S
C610        C611   1.412       .  A
C610       C1527   1.410   1_554  A
C611        C612   1.419   1_545  A
C611       Br618   1.925       .  S
C612        C613   1.413       .  A
C612       Br617   1.927       .  S
C613       C1532   1.414   1_554  A
C614       C1531   1.411       .  A
C614       Br615   1.929       .  S
C619        C620   1.411       .  A
C619        C624   1.416   1_655  A
C619       Br626   1.928       .  S
C620       C1539   1.410   1_554  A
C621        C622   1.416   1_655  A
C621       C1538   1.408       .  A
C621       Br628   1.925       .  S
C622       C1541   1.413       .  A
C622       Br627   1.926       .  S
C623        C624   1.412       .  A
C623       C1540   1.409   1_554  A
C624       Br625   1.922       .  S
C629        C630   1.418       .  A
C629        C634   1.422       .  A
C629       Br636   1.927       .  S
C630       C1549   1.411       .  A
C631        C632   1.402       .  A
C631       C1548   1.411       .  A
C631       Br638   1.926       .  S
C632       C1551   1.409       .  A
C632       Br637   1.935       .  S
C633        C634   1.415       .  A
C633       C1550   1.413       .  A
C634       Br635   1.925       .  S
C639        C640   1.411       .  A
C639        C644   1.412   1_655  A
C639       Br646   1.931       .  S
C640       C1559   1.417   1_556  A
C641        C642   1.423   1_655  A
C641       C1558   1.416       .  A
C641       Br648   1.925       .  S
C642       C1561   1.414       .  A
C642       Br647   1.927       .  S
C643        C644   1.413       .  A
C643       C1560   1.418   1_556  A
C644       Br645   1.923       .  S
C649        C654   1.416       .  A
C649       C1568   1.411       .  A
C649       Br656   1.926       .  S
C650        C651   1.409   1_556  A
C650       C1567   1.415       .  A
C651        C652   1.414       .  A
C651       Br658   1.926       .  S
C652        C653   1.412   1_554  A
C652       Br657   1.926       .  S
C653       C1572   1.416       .  A
C654       C1571   1.411       .  A
C654       Br655   1.926       .  S
C659        C660   1.407       .  A
C659        C664   1.405       .  A
C659       Br666   1.936       .  S
C660        C661   1.410       .  A
C661        C662   1.416       .  A
C661       Br668   1.929       .  S
C662        C663   1.415       .  A
C662       Br667   1.916       .  S
C663        C664   1.414       .  A
C664       Br665   1.921       .  S
C669        C674   1.419       .  A
C669       C1588   1.411       .  A
C669       Br676   1.927       .  S
C670        C671   1.411       .  A
C670       C1587   1.413       .  A
C671        C672   1.408       .  A
C671       Br678   1.931       .  S
C672        C673   1.414       .  A
C672       Br677   1.932       .  S
C673       C1592   1.412       .  A
C674       C1591   1.418   1_554  A
C674       Br675   1.924       .  S
C679        C680   1.410       .  A
C679        C684   1.404       .  A
C679       Br686   1.933       .  S
C680        C681   1.407       .  A
C681        C682   1.405       .  A
C681       Br688   1.929       .  S
C682        C683   1.409       .  A
C682       Br687   1.931       .  S
C683        C684   1.406       .  A
C684       Br685   1.925       .  S
C689        C690   1.413       .  A
C689        C694   1.408       .  A
C689       Br696   1.931       .  S
C690        C691   1.410       .  A
C691        C692   1.403       .  A
C691       Br698   1.933       .  S
C692        C693   1.413       .  A
C692       Br697   1.922       .  S
C693        C694   1.413       .  A
C694       Br695   1.929       .  S
C699        C700   1.406       .  A
C699        C704   1.398       .  A
C699       Br706   1.921       .  S
C700        C701   1.406       .  A
C701        C702   1.406       .  A
C701       Br708   1.933       .  S
C702        C703   1.418       .  A
C702       Br707   1.931       .  S
C703        C704   1.409       .  A
C704       Br705   1.933       .  S
C709        C710   1.430       .  A
C709        C714   1.407       .  A
C709       Br716   1.938       .  S
C710        C711   1.427       .  A
C711        C712   1.414       .  A
C711       Br718   1.940       .  S
C712        C713   1.417       .  A
C712       Br717   1.934       .  S
C713        C714   1.408       .  A
C714       Br715   1.937       .  S
C719        C720   1.417       .  A
C719        C724   1.409       .  A
C719       Br726   1.934       .  S
C720        C721   1.416       .  A
C721        C722   1.408       .  A
C721       Br728   1.927       .  S
C722        C723   1.410       .  A
C722       Br727   1.934       .  S
C723        C724   1.413       .  A
C724       Br725   1.924       .  S
C729        C730   1.404       .  A
C729        C734   1.403       .  A
C729       Br736   1.931       .  S
C730        C731   1.408       .  A
C731        C732   1.407       .  A
C731       Br738   1.926       .  S
C732        C733   1.408       .  A
C732       Br737   1.922       .  S
C733        C734   1.411       .  A
C734       Br735   1.929       .  S
C739        C740   1.416       .  A
C739        C744   1.412       .  A
C739       Br746   1.929       .  S
C740        C741   1.408       .  A
C741        C742   1.408       .  A
C741       Br748   1.937       .  S
C742        C743   1.423       .  A
C742       Br747   1.931       .  S
C743        C744   1.416       .  A
C744       Br745   1.934       .  S
C749        C750   1.415       .  A
C749        C754   1.409       .  A
C749       Br756   1.931       .  S
C750        C751   1.414       .  A
C751        C752   1.400       .  A
C751       Br758   1.927       .  S
C752        C753   1.404       .  A
C752       Br757   1.932       .  S
C753        C754   1.410       .  A
C754       Br755   1.931       .  S
C759        C760   1.410       .  A
C759        C764   1.407       .  A
C759       Br766   1.933       .  S
C760        C761   1.418       .  A
C761        C762   1.407       .  A
C761       Br768   1.935       .  S
C762        C763   1.411       .  A
C762       Br767   1.934       .  S
C763        C764   1.415       .  A
C764       Br765   1.930       .  S
C769        C770   1.413       .  A
C769        C774   1.410       .  A
C769       Br776   1.932       .  S
C770        C771   1.415       .  A
C771        C772   1.401       .  A
C771       Br778   1.939       .  S
C772        C773   1.409       .  A
C772       Br777   1.924       .  S
C773        C774   1.413       .  A
C774       Br775   1.930       .  S
C779        C780   1.413       .  A
C779        C784   1.409       .  A
C779       Br786   1.932       .  S
C780        C781   1.416       .  A
C781        C782   1.409       .  A
C781       Br788   1.934       .  S
C782        C783   1.408       .  A
C782       Br787   1.929       .  S
C783        C784   1.413       .  A
C784       Br785   1.923       .  S
C789        C790   1.411       .  A
C789        C794   1.409       .  A
C789       Br796   1.918       .  S
C790        C791   1.417       .  A
C791        C792   1.408       .  A
C791       Br798   1.928       .  S
C792        C793   1.405       .  A
C792       Br797   1.931       .  S
C793        C794   1.408       .  A
C794       Br795   1.930       .  S
C799        C800   1.416       .  A
C799        C804   1.410       .  A
C799       Br806   1.930       .  S
C800        C801   1.411       .  A
C801        C802   1.399       .  A
C801       Br808   1.924       .  S
C802        C803   1.402       .  A
C802       Br807   1.930       .  S
C803        C804   1.409       .  A
C804       Br805   1.928       .  S
C809        C810   1.422       .  A
C809        C814   1.409       .  A
C809       Br816   1.933       .  S
C810        C811   1.415       .  A
C811        C812   1.408       .  A
C811       Br818   1.935       .  S
C812        C813   1.418       .  A
C812       Br817   1.935       .  S
C813        C814   1.411       .  A
C814       Br815   1.937       .  S
C819        C820   1.405       .  A
C819        C824   1.404       .  A
C819       Br826   1.930       .  S
C820        C821   1.411       .  A
C821        C822   1.403       .  A
C821       Br828   1.931       .  S
C822        C823   1.405       .  A
C822       Br827   1.930       .  S
C823        C824   1.409       .  A
C824       Br825   1.931       .  S
C829        C830   1.413       .  A
C829        C834   1.410       .  A
C829       Br836   1.936       .  S
C830        C831   1.413       .  A
C831        C832   1.406       .  A
C831       Br838   1.926       .  S
C832        C833   1.413       .  A
C832       Br837   1.933       .  S
C833        C834   1.417       .  A
C834       Br835   1.930       .  S
C839        C840   1.411       .  A
C839        C844   1.402       .  A
C839       Br846   1.934       .  S
C840        C841   1.409       .  A
C841        C842   1.410       .  A
C841       Br848   1.925       .  S
C842        C843   1.410       .  A
C842       Br847   1.931       .  S
C843        C844   1.404       .  A
C844       Br845   1.926       .  S
C849        C850   1.419       .  A
C849        C854   1.403       .  A
C849       Br856   1.931       .  S
C850        C851   1.421       .  A
C851        C852   1.410       .  A
C851       Br858   1.937       .  S
C852        C853   1.413       .  A
C852       Br857   1.932       .  S
C853        C854   1.408       .  A
C854       Br855   1.936       .  S
C859        C860   1.418       .  A
C859        C864   1.401       .  A
C859       Br866   1.931       .  S
C860        C861   1.408       .  A
C861        C862   1.401       .  A
C861       Br868   1.934       .  S
C862        C863   1.411       .  A
C862       Br867   1.917       .  S
C863        C864   1.403       .  A
C864       Br865   1.933       .  S
C869        C870   1.415       .  A
C869        C874   1.410       .  A
C869       Br876   1.920       .  S
C870        C871   1.416       .  A
C871        C872   1.415       .  A
C871       Br878   1.931       .  S
C872        C873   1.417       .  A
C872       Br877   1.932       .  S
C873        C874   1.413       .  A
C874       Br875   1.935       .  S
C879        C880   1.420       .  A
C879        C884   1.411       .  A
C879       Br886   1.930       .  S
C880        C881   1.416       .  A
C881        C882   1.408       .  A
C881       Br888   1.936       .  S
C882        C883   1.412       .  A
C882       Br887   1.919       .  S
C883        C884   1.409       .  A
C884       Br885   1.933       .  S
C889        C890   1.406       .  A
C889        C894   1.400       .  A
C889       Br896   1.933       .  S
C890        C891   1.411       .  A
C891        C892   1.398       .  A
C891       Br898   1.922       .  S
C892        C893   1.409       .  A
C892       Br897   1.938       .  S
C893        C894   1.415       .  A
C894       Br895   1.935       .  S
C899        C900   1.410       .  A
C899        C904   1.408       .  A
C899       Br906   1.934       .  S
C900        C901   1.420       .  A
C901        C902   1.406       .  A
C901       Br908   1.930       .  S
C902        C903   1.409       .  A
C902       Br907   1.936       .  S
C903        C904   1.420       .  A
C904       Br905   1.932       .  S
C909        C910   1.409       .  A
C909        C914   1.409       .  A
C909       Br916   1.925       .  S
C910        C911   1.409       .  A
C911        C912   1.409       .  A
C911       Br918   1.932       .  S
C912        C913   1.410       .  A
C912       Br917   1.927       .  S
C913        C914   1.411       .  A
C914       Br915   1.932       .  S
O919       Zr931   2.442       .  S
O919        C921   1.288       .  A
O920       Zr957   2.412       .  S
O920        C921   1.284       .  A
C921       C1831   1.467       .  S
O922       Zr934   2.429       .  S
O922        C924   1.285       .  A
O923       Zr958   2.426       .  S
O923        C924   1.287       .  A
C924       C1761   1.463       .  S
O925       Zr934   2.469       .  S
O925        C927   1.294       .  A
O926       Zr957   2.411   1_565  S
O926        C927   1.283       .  A
C927       C1771   1.488       .  S
O928       Zr931   2.482       .  S
O928        C930   1.296       .  A
O929       Zr958   2.414   1_545  S
O929        C930   1.283       .  A
C930       C1818   1.503       .  S
Zr931       O932   2.435       .  S
Zr931       O933   2.436       .  S
Zr931       O937   2.378       .  S
Zr931       O938   2.355       .  S
Zr931       O961   2.368       .  S
Zr931       O963   2.389       .  S
O932        H975   0.990       .  S
O933        H974   0.990       .  S
O933        H978   0.990       .  S
Zr934       O935   2.438       .  S
Zr934       O936   2.433       .  S
Zr934       O938   2.381   1_565  S
Zr934       O937   2.358   1_565  S
Zr934       O962   2.371       .  S
Zr934       O964   2.386       .  S
O935        H976   0.990       .  S
O935        H979   0.990       .  S
O936        H969   0.990       .  S
O937       Zr957   2.382       .  S
O938       Zr958   2.385   1_545  S
O938        H965   0.966       .  S
O939       Zr951   2.426       .  S
O939        C941   1.284       .  A
O940       Zr958   2.439   1_545  S
O940        C941   1.290       .  A
C941       C1798   1.488       .  S
O942       Zr954   2.445       .  S
O942        C944   1.287       .  A
O943       Zr957   2.435   1_565  S
O943        C944   1.289       .  A
C944       C1791   1.500       .  S
O945       Zr954   2.443       .  S
O945        C947   1.287       .  A
O946       Zr958   2.415       .  S
O946        C947   1.284       .  A
C947       C1781   1.474       .  S
O948       Zr951   2.435       .  S
O948        C950   1.286       .  A
O949       Zr957   2.413       .  S
O949        C950   1.284       .  A
C950       C1808   1.471       .  S
Zr951       O952   2.435       .  S
Zr951       O953   2.432       .  S
Zr951       O959   2.371   1_545  S
Zr951       O960   2.361   1_545  S
Zr951       O963   2.370       .  S
Zr951       O961   2.380       .  S
O952        H972   0.989       .  S
O952        H977   0.990       .  S
O953        H973   0.990       .  S
Zr954       O955   2.432       .  S
Zr954       O956   2.437       .  S
Zr954       O960   2.378       .  S
Zr954       O959   2.378       .  S
Zr954       O964   2.369       .  S
Zr954       O962   2.371       .  S
O955        H971   0.990       .  S
O956        H970   0.990       .  S
O956        H980   0.990       .  S
Zr957       O960   2.369   1_545  S
Zr957       O962   2.381   1_545  S
Zr957       O963   2.389       .  S
Zr958       O959   2.379       .  S
Zr958       O961   2.377   1_565  S
Zr958       O964   2.388       .  S
O959        H967   0.966       .  S
O962        H966   0.966       .  S
O963        H968   0.966       .  S
O981       Zr993   2.439       .  S
O981        C983   1.287       .  A
O982      Zr1019   2.442   1_455  S
O982        C983   1.290       .  A
C983       C1751   1.494       .  S
O984       Zr996   2.457       .  S
O984        C986   1.291       .  A
O985      Zr1020   2.406   1_655  S
O985        C986   1.281       .  A
C986       C1681   1.487       .  S
O987       Zr996   2.466       .  S
O987        C989   1.292       .  A
O988      Zr1019   2.402       .  S
O988        C989   1.283       .  A
C989       C1688   1.493       .  S
O990       Zr993   2.421       .  S
O990        C992   1.282       .  A
O991      Zr1020   2.426       .  S
O991        C992   1.286       .  A
C992       C1741   1.463       .  S
Zr993       O994   2.432       .  S
Zr993       O995   2.436       .  S
Zr993       O999   2.373   1_455  S
Zr993      O1000   2.374   1_455  S
Zr993      O1023   2.377       .  S
Zr993      O1025   2.363       .  S
O994       H1037   0.990       .  S
O995       H1036   0.990       .  S
O995       H1040   0.990       .  S
Zr996       O997   2.436       .  S
Zr996       O998   2.434       .  S
Zr996      O1000   2.373       .  S
Zr996       O999   2.375       .  S
Zr996      O1024   2.375       .  S
Zr996      O1026   2.374       .  S
O997       H1038   0.990       .  S
O997       H1041   0.990       .  S
O998       H1031   0.989       .  S
O999      Zr1019   2.373       .  S
O1000     Zr1020   2.382   1_655  S
O1000      H1027   0.965   1_655  S
O1001     Zr1013   2.453       .  S
O1001      C1003   1.290       .  A
O1002     Zr1020   2.410       .  S
O1002      C1003   1.283       .  A
C1003      C1718   1.478       .  S
O1004     Zr1016   2.444       .  S
O1004      C1006   1.288       .  A
O1005     Zr1019   2.436       .  S
O1005      C1006   1.289       .  A
C1006      C1711   1.478       .  S
O1007     Zr1016   2.465       .  S
O1007      C1009   1.292       .  A
O1008     Zr1020   2.412   1_655  S
O1008      C1009   1.283       .  A
C1009      C1701   1.482       .  S
O1010     Zr1013   2.464       .  S
O1010      C1012   1.293       .  A
O1011     Zr1019   2.398   1_455  S
O1011      C1012   1.280       .  A
C1012      C1731   1.493       .  S
Zr1013     O1014   2.434       .  S
Zr1013     O1015   2.432       .  S
Zr1013     O1021   2.375       .  S
Zr1013     O1022   2.365   1_455  S
Zr1013     O1025   2.374       .  S
Zr1013     O1023   2.379       .  S
O1014      H1034   0.990       .  S
O1014      H1039   0.990       .  S
O1015      H1035   0.989       .  S
Zr1016     O1017   2.435       .  S
Zr1016     O1018   2.435       .  S
Zr1016     O1022   2.373       .  S
Zr1016     O1021   2.364   1_655  S
Zr1016     O1026   2.371       .  S
Zr1016     O1024   2.384       .  S
O1017      H1033   0.990       .  S
O1018      H1032   0.990       .  S
O1018      H1042   0.990       .  S
Zr1019     O1022   2.380       .  S
Zr1019     O1024   2.387       .  S
Zr1019     O1025   2.379   1_655  S
Zr1020     O1021   2.385       .  S
Zr1020     O1023   2.381       .  S
Zr1020     O1026   2.383   1_455  S
O1021      H1029   0.966       .  S
O1024      H1028   0.966       .  S
O1025      H1030   0.965       .  S
O1043     Zr1055   2.437       .  S
O1043      C1045   1.286       .  A
O1044     Zr1081   2.434       .  S
O1044      C1045   1.289       .  A
C1045      C1668   1.477       .  S
O1046     Zr1058   2.436       .  S
O1046      C1048   1.285       .  A
O1047     Zr1082   2.410       .  S
O1047      C1048   1.284       .  A
C1048      C1601   1.458       .  S
O1049     Zr1058   2.458       .  S
O1049      C1051   1.292       .  A
O1050     Zr1081   2.402       .  S
O1050      C1051   1.281       .  A
C1051      C1608   1.477       .  S
O1052     Zr1055   2.481       .  S
O1052      C1054   1.297       .  A
O1053     Zr1082   2.402       .  S
O1053      C1054   1.280       .  A
C1054      C1658   1.495       .  S
Zr1055     O1056   2.433       .  S
Zr1055     O1057   2.432       .  S
Zr1055     O1061   2.378       .  S
Zr1055     O1062   2.351       .  S
Zr1055     O1085   2.369       .  S
Zr1055     O1087   2.385       .  S
O1056      H1099   0.990       .  S
O1057      H1098   0.990       .  S
O1057      H1102   0.989       .  S
Zr1058     O1059   2.436       .  S
Zr1058     O1060   2.435       .  S
Zr1058     O1062   2.373       .  S
Zr1058     O1061   2.367       .  S
Zr1058     O1086   2.366       .  S
Zr1058     O1088   2.380       .  S
O1059      H1100   0.990       .  S
O1059      H1103   0.990       .  S
O1060      H1093   0.990       .  S
O1061     Zr1081   2.383       .  S
O1062     Zr1082   2.383       .  S
O1062      H1089   0.965       .  S
O1063     Zr1075   2.438       .  S
O1063      C1065   1.286       .  A
O1064     Zr1082   2.426       .  S
O1064      C1065   1.288       .  A
C1065      C1638   1.486       .  S
O1066     Zr1078   2.441       .  S
O1066      C1068   1.287       .  A
O1067     Zr1081   2.426       .  S
O1067      C1068   1.286       .  A
C1068      C1628   1.494       .  S
O1069     Zr1078   2.444       .  S
O1069      C1071   1.288       .  A
O1070     Zr1082   2.407       .  S
O1070      C1071   1.283       .  A
C1071      C1618   1.473       .  S
O1072     Zr1075   2.431       .  S
O1072      C1074   1.285       .  A
O1073     Zr1081   2.419       .  S
O1073      C1074   1.285       .  A
C1074      C1648   1.472       .  S
Zr1075     O1076   2.431       .  S
Zr1075     O1077   2.435       .  S
Zr1075     O1083   2.372       .  S
Zr1075     O1084   2.367       .  S
Zr1075     O1087   2.368       .  S
Zr1075     O1085   2.376       .  S
O1076      H1096   0.990       .  S
O1076      H1101   0.990       .  S
O1077      H1097   0.989       .  S
Zr1078     O1079   2.432       .  S
Zr1078     O1080   2.437       .  S
Zr1078     O1084   2.374       .  S
Zr1078     O1083   2.370       .  S
Zr1078     O1088   2.369       .  S
Zr1078     O1086   2.375       .  S
O1079      H1095   0.990       .  S
O1080      H1094   0.990       .  S
O1080      H1104   0.990       .  S
Zr1081     O1084   2.370       .  S
Zr1081     O1086   2.387       .  S
Zr1081     O1087   2.381       .  S
Zr1082     O1083   2.373       .  S
Zr1082     O1085   2.379       .  S
Zr1082     O1088   2.383       .  S
O1083      H1091   0.966       .  S
O1086      H1090   0.966       .  S
O1087      H1092   0.966       .  S
O1105     Zr1117   2.438       .  S
C1107      C1578   1.477   1_554  S
O1108     Zr1120   2.443       .  S
O1108      C1110   1.289       .  A
O1109     Zr1144   2.426   1_556  S
O1109      C1110   1.286       .  A
C1110      C1631   1.484       .  S
O1111     Zr1120   2.435       .  S
O1111      C1113   1.287       .  A
O1112     Zr1143   2.442   1_556  S
O1112      C1113   1.289       .  A
C1113      C1691   1.487       .  S
O1114     Zr1117   2.453       .  S
O1115     Zr1144   2.447       .  S
O1115      C1116   1.289       .  A
C1116      C1588   1.485       .  S
Zr1117     O1119   2.436       .  S
Zr1117     O1147   2.359       .  S
Zr1117     O1149   2.362       .  S
O1118      H1161   0.990       .  S
O1119      H1160   0.990       .  S
O1119      H1164   0.990       .  S
Zr1120     O1121   2.435       .  S
Zr1120     O1122   2.432       .  S
Zr1120     O1124   2.359       .  S
Zr1120     O1123   2.365       .  S
Zr1120     O1148   2.371       .  S
Zr1120     O1150   2.371       .  S
O1121      H1162   0.990       .  S
O1121      H1165   0.990       .  S
O1122      H1155   0.990       .  S
O1123     Zr1143   2.382   1_556  S
O1124     Zr1144   2.382   1_556  S
O1124      H1151   0.963       .  S
O1125     Zr1137   2.433       .  S
O1125      C1127   1.286       .  A
O1126      C1127   1.285       .  A
C1127      C1621   1.477       .  S
O1128     Zr1140   2.491       .  S
O1129     Zr1143   2.435   1_556  S
C1130      C1558   1.504       .  S
O1131     Zr1140   2.496       .  S
O1132     Zr1144   2.444       .  S
C1133      C1568   1.490       .  S
O1134     Zr1137   2.451       .  S
O1134      C1136   1.289       .  A
O1135      C1136   1.286       .  A
C1136      C1678   1.489       .  S
Zr1137     O1138   2.436       .  S
Zr1137     O1139   2.436       .  S
Zr1137     O1145   2.366       .  S
Zr1137     O1146   2.361       .  S
Zr1137     O1149   2.383       .  S
Zr1137     O1147   2.384       .  S
O1138      H1158   0.990       .  S
O1138      H1163   0.990       .  S
O1139      H1159   0.989       .  S
Zr1140     O1142   2.436       .  S
Zr1140     O1150   2.381       .  S
Zr1140     O1148   2.387       .  S
O1141      H1157   0.990       .  S
O1142      H1156   0.990       .  S
O1142      H1166   0.990       .  S
Zr1143     O1148   2.391   1_554  S
Zr1144     O1150   2.386   1_554  S
O1145      H1153   0.965       .  S
O1148      H1152   0.967       .  S
O1149      H1154   0.964       .  S
O1167     Zr1179   2.429       .  S
C1169      C1551   1.491   1_556  S
O1170     Zr1182   2.448       .  S
O1170      C1172   1.287       .  A
O1171     Zr1206   2.446       .  S
O1171      C1172   1.290       .  A
C1172      C1708   1.487       .  S
O1173     Zr1182   2.425       .  S
O1173      C1175   1.284       .  A
O1174     Zr1205   2.416       .  S
O1174      C1175   1.285       .  A
C1175      C1811   1.474       .  S
O1176      C1178   1.284       .  A
O1177     Zr1206   2.462       .  S
O1177      C1178   1.293       .  A
C1178      C1581   1.490       .  S
Zr1179     O1181   2.431       .  S
Zr1179     O1209   2.363       .  S
Zr1179     O1211   2.370       .  S
O1180      H1223   0.990       .  S
O1181      H1222   0.989       .  S
O1181      H1226   0.989       .  S
Zr1182     O1183   2.440       .  S
Zr1182     O1184   2.435       .  S
Zr1182     O1186   2.378       .  S
Zr1182     O1185   2.377       .  S
Zr1182     O1210   2.370       .  S
Zr1182     O1212   2.361       .  S
O1183      H1224   0.989       .  S
O1183      H1227   0.990       .  S
O1184      H1217   0.990       .  S
O1185     Zr1205   2.378       .  S
O1186     Zr1206   2.385       .  S
O1186      H1213   0.965       .  S
O1187     Zr1199   2.425       .  S
O1187      C1189   1.285       .  A
O1188      C1189   1.288       .  A
C1189      C1698   1.483       .  S
O1190     Zr1202   2.489       .  S
O1191     Zr1205   2.433   1_554  S
C1192      C1528   1.502       .  S
O1193     Zr1202   2.473       .  S
O1194     Zr1206   2.453       .  S
C1195      C1538   1.496       .  S
O1196     Zr1199   2.442       .  S
O1196      C1198   1.287       .  A
O1197      C1198   1.288       .  A
C1198      C1801   1.486       .  S
Zr1199     O1200   2.432       .  S
Zr1199     O1201   2.433       .  S
Zr1199     O1207   2.369       .  S
Zr1199     O1208   2.365       .  S
Zr1199     O1211   2.368       .  S
Zr1199     O1209   2.373       .  S
O1200      H1220   0.990       .  S
O1200      H1225   0.989       .  S
O1201      H1221   0.990       .  S
Zr1202     O1204   2.436   1_554  S
Zr1202     O1212   2.392   1_554  S
Zr1202     O1210   2.386   1_554  S
O1203      H1219   0.990       .  S
O1204      H1218   0.990       .  S
O1204      H1228   0.990       .  S
Zr1205     O1210   2.404       .  S
Zr1206     O1212   2.398       .  S
O1207      H1215   0.966       .  S
O1210      H1214   0.966       .  S
O1211      H1216   0.966       .  S
O1229     Zr1241   2.426       .  S
C1231      C1521   1.497   1_554  S
O1232     Zr1244   2.459       .  S
O1232      C1234   1.289       .  A
O1233     Zr1268   2.438   1_556  S
O1233      C1234   1.288       .  A
C1234      C1748   1.497       .  S
O1235     Zr1244   2.448       .  S
O1235      C1237   1.288       .  A
O1236     Zr1267   2.432   1_556  S
O1236      C1237   1.286       .  A
C1237      C1768   1.505       .  S
O1238     Zr1241   2.419       .  S
O1239     Zr1268   2.453       .  S
O1239      C1240   1.291       .  A
C1240      C1508   1.495   1_554  S
Zr1241     O1243   2.436       .  S
Zr1241     O1271   2.363       .  S
Zr1241     O1273   2.349       .  S
O1242      H1285   0.990       .  S
O1243      H1284   0.990       .  S
O1243      H1288   0.990       .  S
Zr1244     O1245   2.434       .  S
Zr1244     O1246   2.435       .  S
Zr1244     O1248   2.375       .  S
Zr1244     O1247   2.376       .  S
Zr1244     O1272   2.370       .  S
Zr1244     O1274   2.365       .  S
O1245      H1286   0.990       .  S
O1245      H1289   0.990       .  S
O1246      H1279   0.989       .  S
O1247     Zr1267   2.375   1_556  S
O1248     Zr1268   2.388   1_556  S
O1248      H1275   0.965       .  S
O1249     Zr1261   2.427       .  S
O1249      C1251   1.285       .  A
O1250      C1251   1.286       .  A
C1251      C1738   1.470       .  S
O1252     Zr1264   2.473       .  S
O1253     Zr1267   2.421       .  S
C1254      C1498   1.490       .  S
O1255     Zr1264   2.493   1_556  S
O1256     Zr1268   2.447       .  S
C1257      C1561   1.505       .  S
O1258     Zr1261   2.433       .  S
O1258      C1260   1.285       .  A
O1259      C1260   1.289       .  A
C1260      C1758   1.471       .  S
Zr1261     O1262   2.434       .  S
Zr1261     O1263   2.435       .  S
Zr1261     O1269   2.368       .  S
Zr1261     O1270   2.363       .  S
Zr1261     O1273   2.380       .  S
Zr1261     O1271   2.379       .  S
O1262      H1282   0.990       .  S
O1262      H1287   0.990       .  S
O1263      H1283   0.990       .  S
Zr1264     O1266   2.436   1_554  S
Zr1264     O1274   2.381   1_554  S
Zr1264     O1272   2.396   1_554  S
O1265      H1281   0.990       .  S
O1266      H1280   0.990       .  S
O1266      H1290   0.990       .  S
Zr1267     O1272   2.404   1_554  S
Zr1268     O1274   2.389   1_554  S
O1269      H1277   0.966       .  S
O1272      H1276   0.966       .  S
O1273      H1278   0.964       .  S
O1291     Zr1303   2.452       .  S
O1291      C1293   1.290       .  A
O1292     Zr1329   2.433   1_556  S
O1292      C1293   1.287       .  A
C1293      C1788   1.496       .  S
O1294     Zr1306   2.415       .  S
O1295     Zr1330   2.458       .  S
O1295      C1296   1.292   1_556  A
C1296      C1488   1.485       .  S
O1297     Zr1306   2.427       .  S
C1299      C1518   1.493       .  S
O1300     Zr1303   2.445       .  S
O1300      C1302   1.288       .  A
O1301     Zr1330   2.401       .  S
O1301      C1302   1.282       .  A
C1302      C1651   1.471       .  S
Zr1303     O1304   2.434       .  S
Zr1303     O1305   2.434       .  S
Zr1303     O1309   2.378       .  S
Zr1303     O1310   2.376       .  S
Zr1303     O1333   2.366       .  S
Zr1303     O1335   2.368       .  S
O1304      H1347   0.990       .  S
O1305      H1346   0.990       .  S
O1305      H1350   0.991       .  S
Zr1306     O1308   2.434       .  S
Zr1306     O1334   2.345       .  S
Zr1306     O1336   2.378       .  S
O1307      H1348   0.990       .  S
O1307      H1351   0.990       .  S
O1308      H1341   0.990       .  S
O1309     Zr1329   2.382   1_556  S
O1310     Zr1330   2.388       .  S
O1310      H1337   0.965       .  S
O1311     Zr1323   2.493   1_556  S
O1312     Zr1330   2.447       .  S
C1313      C1571   1.490       .  S
O1314     Zr1326   2.420       .  S
O1314      C1316   1.284       .  A
O1315      C1316   1.289       .  A
C1316      C1778   1.470       .  S
O1317     Zr1326   2.449       .  S
O1317      C1319   1.288       .  A
O1318      C1319   1.287       .  A
C1319      C1641   1.490       .  S
O1320     Zr1323   2.500       .  S
O1321     Zr1329   2.432       .  S
C1322      C1531   1.497       .  S
Zr1323     O1325   2.435   1_554  S
Zr1323     O1335   2.384   1_554  S
Zr1323     O1333   2.388   1_554  S
O1324      H1344   0.990       .  S
O1324      H1349   0.990       .  S
O1325      H1345   0.990       .  S
Zr1326     O1327   2.434       .  S
Zr1326     O1328   2.439       .  S
Zr1326     O1332   2.367       .  S
Zr1326     O1331   2.351       .  S
Zr1326     O1336   2.379       .  S
Zr1326     O1334   2.384       .  S
O1327      H1343   0.990       .  S
O1328      H1342   0.990       .  S
O1328      H1352   0.990       .  S
Zr1329     O1335   2.399   1_554  S
Zr1330     O1333   2.394       .  S
O1331      H1339   0.966       .  S
O1334      H1338   0.964       .  S
O1335      H1340   0.966       .  S
O1353     Zr1365   2.442       .  S
C1355      C1511   1.502       .  S
O1356     Zr1368   2.432       .  S
O1356      C1358   1.282       .  A
O1357     Zr1392   2.461       .  S
O1357      C1358   1.292       .  A
C1358      C1671   1.481       .  S
O1359     Zr1368   2.433       .  S
O1359      C1361   1.285       .  A
O1360     Zr1391   2.438   1_556  S
O1360      C1361   1.288       .  A
C1361      C1728   1.499       .  S
O1362     Zr1365   2.444       .  S
O1363     Zr1392   2.429       .  S
O1363      C1364   1.286   1_556  A
C1364      C1491   1.484       .  S
Zr1365     O1367   2.436       .  S
Zr1365     O1395   2.361       .  S
Zr1365     O1397   2.362       .  S
O1366      H1409   0.990       .  S
O1367      H1408   0.990       .  S
O1367      H1412   0.990       .  S
Zr1368     O1369   2.440       .  S
Zr1368     O1370   2.437       .  S
Zr1368     O1372   2.390       .  S
Zr1368     O1371   2.380       .  S
Zr1368     O1396   2.362       .  S
Zr1368     O1398   2.365       .  S
O1369      H1410   0.991       .  S
O1369      H1413   0.990       .  S
O1370      H1403   0.990       .  S
O1371     Zr1391   2.384   1_556  S
O1372     Zr1392   2.384       .  S
O1372      H1399   0.996       .  S
O1373     Zr1385   2.443       .  S
O1373      C1375   1.287       .  A
O1374      C1375   1.289       .  A
C1375      C1661   1.506       .  S
O1376     Zr1388   2.487   1_554  S
O1377     Zr1391   2.429       .  S
C1378      C1541   1.503       .  S
O1379     Zr1388   2.499       .  S
O1380     Zr1392   2.409       .  S
C1381      C1478   1.486       .  S
O1382     Zr1385   2.415       .  S
O1382      C1384   1.281       .  A
O1383      C1384   1.288       .  A
C1384      C1721   1.463       .  S
Zr1385     O1386   2.435       .  S
Zr1385     O1387   2.429       .  S
Zr1385     O1393   2.353       .  S
Zr1385     O1394   2.367       .  S
Zr1385     O1397   2.381       .  S
Zr1385     O1395   2.363       .  S
O1386      H1406   0.990       .  S
O1386      H1411   0.990       .  S
O1387      H1407   0.991       .  S
Zr1388     O1390   2.437       .  S
Zr1388     O1398   2.385       .  S
Zr1388     O1396   2.394       .  S
O1389      H1405   0.990       .  S
O1390      H1404   0.990       .  S
O1390      H1414   0.990       .  S
Zr1391     O1396   2.408   1_554  S
Zr1392     O1398   2.398       .  S
O1393      H1401   0.966       .  S
O1396      H1400   0.967       .  S
O1397      H1402   0.966       .  S
O1415     Zr1427   2.397       .  S
O1415      C1417   1.277       .  A
O1416     Zr1453   2.455       .  S
O1416      C1417   1.292       .  A
C1417      C1828   1.468       .  S
O1418      C1420   1.291       .  A
O1419     Zr1454   2.439       .  S
O1419      C1420   1.288       .  A
C1420      C1591   1.494       .  S
O1421     Zr1430   2.446       .  S
C1423      C1548   1.499       .  S
O1424     Zr1427   2.416       .  S
O1424      C1426   1.282       .  A
O1425     Zr1454   2.439       .  S
O1425      C1426   1.289       .  A
C1426      C1611   1.475       .  S
Zr1427     O1428   2.433       .  S
Zr1427     O1429   2.435       .  S
Zr1427     O1433   2.378       .  S
Zr1427     O1434   2.375       .  S
Zr1427     O1457   2.358       .  S
Zr1427     O1459   2.363       .  S
O1428      H1471   0.991       .  S
O1429      H1470   0.990       .  S
O1429      H1474   0.990       .  S
Zr1430     O1432   2.431       .  S
Zr1430     O1458   2.352       .  S
Zr1430     O1460   2.375       .  S
O1431      H1472   0.990       .  S
O1431      H1475   0.989       .  S
O1432      H1465   0.990       .  S
O1433     Zr1453   2.372       .  S
O1434     Zr1454   2.375       .  S
O1434      H1461   0.965       .  S
O1435     Zr1447   2.511       .  S
O1436     Zr1454   2.394       .  S
C1437      C1481   1.489       .  S
O1438     Zr1450   2.448       .  S
O1438      C1440   1.288       .  A
O1439      C1440   1.292       .  A
C1440      C1821   1.501       .  S
O1441     Zr1450   2.428       .  S
O1441      C1443   1.284       .  A
O1442      C1443   1.284       .  A
C1443      C1598   1.461       .  S
O1444     Zr1447   2.488       .  S
O1445     Zr1453   2.417   1_554  S
C1446      C1501   1.496       .  S
Zr1447     O1449   2.436   1_554  S
Zr1447     O1459   2.394   1_554  S
Zr1447     O1457   2.384   1_554  S
O1448      H1468   0.990       .  S
O1448      H1473   0.990       .  S
O1449      H1469   0.990       .  S
Zr1450     O1451   2.434       .  S
Zr1450     O1452   2.439       .  S
Zr1450     O1456   2.362       .  S
Zr1450     O1455   2.364       .  S
Zr1450     O1460   2.382       .  S
Zr1450     O1458   2.377       .  S
O1451      H1467   0.990       .  S
O1452      H1466   0.989       .  S
O1452      H1476   0.990       .  S
Zr1453     O1459   2.407       .  S
Zr1454     O1457   2.390       .  S
O1455      H1463   0.966       .  S
O1458      H1462   0.964       .  S
O1459      H1464   0.966       .  S
C1477      C1482   1.398       .  A
C1477     Br1484   1.942       .  S
C1478      C1479   1.413       .  A
C1479      C1480   1.418       .  A
C1479     Br1486   1.928       .  S
C1480      C1481   1.412       .  A
C1480     Br1485   1.925       .  S
C1482     Br1483   1.948   1_556  S
C1487      C1488   1.412       .  A
C1487      C1492   1.403       .  A
C1487     Br1494   1.933       .  S
C1488      C1489   1.413   1_554  A
C1489      C1490   1.414       .  A
C1490      C1491   1.410   1_556  A
C1491      C1492   1.408       .  A
C1492     Br1493   1.927       .  S
C1497      C1502   1.403   1_565  A
C1497     Br1504   1.933       .  S
C1498      C1499   1.412       .  A
C1499      C1500   1.419   1_565  A
C1499     Br1506   1.925       .  S
C1500      C1501   1.413       .  A
C1500     Br1505   1.926       .  S
C1502     Br1503   1.918       .  S
C1507      C1512   1.420       .  A
C1507     Br1514   1.928       .  S
C1508      C1509   1.412       .  A
C1509      C1510   1.403       .  A
C1509     Br1516   1.933       .  S
C1510      C1511   1.410       .  A
C1510     Br1515   1.928       .  S
C1512     Br1513   1.927       .  S
C1517      C1522   1.417       .  A
C1517     Br1524   1.926       .  S
C1518      C1519   1.409       .  A
C1519      C1520   1.408       .  A
C1519     Br1526   1.933       .  S
C1520      C1521   1.412       .  A
C1520     Br1525   1.925       .  S
C1522     Br1523   1.924       .  S
C1527      C1532   1.416   1_545  A
C1527     Br1534   1.929       .  S
C1528      C1529   1.413       .  A
C1529      C1530   1.420   1_545  A
C1529     Br1536   1.926       .  S
C1530      C1531   1.413       .  A
C1530     Br1535   1.926       .  S
C1532     Br1533   1.926       .  S
C1537      C1538   1.410       .  A
C1537      C1542   1.420   1_655  A
C1537     Br1544   1.928       .  S
C1539      C1540   1.413   1_655  A
C1539     Br1546   1.924       .  S
C1540     Br1545   1.929       .  S
C1541      C1542   1.416       .  A
C1542     Br1543   1.921       .  S
C1547      C1548   1.418   1_556  A
C1547      C1552   1.422       .  A
C1547     Br1554   1.925       .  S
C1549      C1550   1.405       .  A
C1549     Br1556   1.931       .  S
C1550     Br1555   1.932       .  S
C1551      C1552   1.414   1_554  A
C1552     Br1553   1.927       .  S
C1557      C1558   1.412       .  A
C1557      C1562   1.412   1_655  A
C1557     Br1564   1.929       .  S
C1559      C1560   1.425   1_655  A
C1559     Br1566   1.927       .  S
C1560     Br1565   1.926       .  S
C1561      C1562   1.415       .  A
C1562     Br1563   1.924       .  S
C1567      C1572   1.424       .  A
C1567     Br1574   1.926       .  S
C1568      C1569   1.409       .  A
C1569      C1570   1.411       .  A
C1569     Br1576   1.928       .  S
C1570      C1571   1.412       .  A
C1570     Br1575   1.926       .  S
C1572     Br1573   1.927       .  S
C1577      C1578   1.407       .  A
C1577      C1582   1.402       .  A
C1577     Br1584   1.938       .  S
C1578      C1579   1.408   1_556  A
C1579      C1580   1.414       .  A
C1579     Br1586   1.929       .  S
C1580      C1581   1.415   1_554  A
C1580     Br1585   1.919       .  S
C1581      C1582   1.415       .  A
C1582     Br1583   1.925       .  S
C1587      C1592   1.418       .  A
C1587     Br1594   1.925       .  S
C1588      C1589   1.409   1_554  A
C1589      C1590   1.401       .  A
C1589     Br1596   1.934       .  S
C1590      C1591   1.410       .  A
C1590     Br1595   1.925       .  S
C1592     Br1593   1.922       .  S
C1597      C1598   1.409       .  A
C1597      C1602   1.399       .  A
C1597     Br1604   1.933       .  S
C1598      C1599   1.407       .  A
C1599      C1600   1.405       .  A
C1599     Br1606   1.925       .  S
C1600      C1601   1.409       .  A
C1600     Br1605   1.932       .  S
C1601      C1602   1.402       .  A
C1602     Br1603   1.926       .  S
C1607      C1608   1.413       .  A
C1607      C1612   1.403       .  A
C1607     Br1614   1.918       .  S
C1608      C1609   1.407       .  A
C1609      C1610   1.405       .  A
C1609     Br1616   1.934       .  S
C1610      C1611   1.415       .  A
C1610     Br1615   1.929       .  S
C1611      C1612   1.404       .  A
C1612     Br1613   1.927       .  S
C1617      C1618   1.410       .  A
C1617      C1622   1.401       .  A
C1617     Br1624   1.918       .  S
C1618      C1619   1.406       .  A
C1619      C1620   1.406       .  A
C1619     Br1626   1.931       .  S
C1620      C1621   1.416       .  A
C1620     Br1625   1.930       .  S
C1621      C1622   1.409       .  A
C1622     Br1623   1.932       .  S
C1627      C1628   1.420       .  A
C1627      C1632   1.406       .  A
C1627     Br1634   1.931       .  S
C1628      C1629   1.420       .  A
C1629      C1630   1.410       .  A
C1629     Br1636   1.938       .  S
C1630      C1631   1.413       .  A
C1630     Br1635   1.926       .  S
C1631      C1632   1.408       .  A
C1632     Br1633   1.936       .  S
C1637      C1638   1.409       .  A
C1637      C1642   1.403       .  A
C1637     Br1644   1.935       .  S
C1638      C1639   1.417       .  A
C1639      C1640   1.411       .  A
C1639     Br1646   1.928       .  S
C1640      C1641   1.413       .  A
C1640     Br1645   1.931       .  S
C1641      C1642   1.411       .  A
C1642     Br1643   1.912       .  S
C1647      C1648   1.407       .  A
C1647      C1652   1.400       .  A
C1647     Br1654   1.930       .  S
C1648      C1649   1.410       .  A
C1649      C1650   1.406       .  A
C1649     Br1656   1.917       .  S
C1650      C1651   1.410       .  A
C1650     Br1655   1.933       .  S
C1651      C1652   1.411       .  A
C1652     Br1653   1.933       .  S
C1657      C1658   1.418       .  A
C1657      C1662   1.416       .  A
C1657     Br1664   1.930       .  S
C1658      C1659   1.405       .  A
C1659      C1660   1.407       .  A
C1659     Br1666   1.936       .  S
C1660      C1661   1.424       .  A
C1660     Br1665   1.929       .  S
C1661      C1662   1.421       .  A
C1662     Br1663   1.937       .  S
C1667      C1668   1.411       .  A
C1667      C1672   1.413       .  A
C1667     Br1674   1.934       .  S
C1668      C1669   1.406       .  A
C1669      C1670   1.406       .  A
C1669     Br1676   1.925       .  S
C1670      C1671   1.410       .  A
C1670     Br1675   1.931       .  S
C1671      C1672   1.411       .  A
C1672     Br1673   1.925       .  S
C1677      C1678   1.415       .  A
C1677      C1682   1.410       .  A
C1677     Br1684   1.935       .  S
C1678      C1679   1.419       .  A
C1679      C1680   1.406       .  A
C1679     Br1686   1.934       .  S
C1680      C1681   1.409       .  A
C1680     Br1685   1.935       .  S
C1681      C1682   1.416       .  A
C1682     Br1683   1.933       .  S
C1687      C1688   1.417       .  A
C1687      C1692   1.412       .  A
C1687     Br1694   1.930       .  S
C1688      C1689   1.418       .  A
C1689      C1690   1.406       .  A
C1689     Br1696   1.937       .  S
C1690      C1691   1.408       .  A
C1690     Br1695   1.922       .  S
C1691      C1692   1.412       .  A
C1692     Br1693   1.933       .  S
C1697      C1698   1.412       .  A
C1697      C1702   1.409       .  A
C1697     Br1704   1.934       .  S
C1698      C1699   1.416       .  A
C1699      C1700   1.406       .  A
C1699     Br1706   1.934       .  S
C1700      C1701   1.407       .  A
C1700     Br1705   1.931       .  S
C1701      C1702   1.413       .  A
C1702     Br1703   1.923       .  S
C1707      C1708   1.410       .  A
C1707      C1712   1.410       .  A
C1707     Br1714   1.923       .  S
C1708      C1709   1.417       .  A
C1709      C1710   1.408       .  A
C1709     Br1716   1.926       .  S
C1710      C1711   1.406       .  A
C1710     Br1715   1.932       .  S
C1711      C1712   1.409       .  A
C1712     Br1713   1.927       .  S
C1717      C1718   1.416       .  A
C1717      C1722   1.406       .  A
C1717     Br1724   1.931       .  S
C1718      C1719   1.413       .  A
C1719      C1720   1.400       .  A
C1719     Br1726   1.925       .  S
C1720      C1721   1.404       .  A
C1720     Br1725   1.931       .  S
C1721      C1722   1.405       .  A
C1722     Br1723   1.928       .  S
C1727      C1728   1.422       .  A
C1727      C1732   1.407       .  A
C1727     Br1734   1.934       .  S
C1728      C1729   1.417       .  A
C1729      C1730   1.410       .  A
C1729     Br1736   1.934       .  S
C1730      C1731   1.420       .  A
C1730     Br1735   1.939       .  S
C1731      C1732   1.411       .  A
C1732     Br1733   1.937       .  S
C1737      C1738   1.409       .  A
C1737      C1742   1.406       .  A
C1737     Br1744   1.929       .  S
C1738      C1739   1.412       .  A
C1739      C1740   1.403       .  A
C1739     Br1746   1.931       .  S
C1740      C1741   1.404       .  A
C1740     Br1745   1.931       .  S
C1741      C1742   1.408       .  A
C1742     Br1743   1.932       .  S
C1747      C1748   1.414       .  A
C1747      C1752   1.415       .  A
C1747     Br1754   1.933       .  S
C1748      C1749   1.413       .  A
C1749      C1750   1.408       .  A
C1749     Br1756   1.914       .  S
C1750      C1751   1.410       .  A
C1750     Br1755   1.933       .  S
C1751      C1752   1.417       .  A
C1752     Br1753   1.930       .  S
C1757      C1758   1.413       .  A
C1757      C1762   1.402       .  A
C1757     Br1764   1.932       .  S
C1758      C1759   1.409       .  A
C1759      C1760   1.407       .  A
C1759     Br1766   1.923       .  S
C1760      C1761   1.407       .  A
C1760     Br1765   1.931       .  S
C1761      C1762   1.402       .  A
C1762     Br1763   1.928       .  S
C1767      C1768   1.423       .  A
C1767      C1772   1.408       .  A
C1767     Br1774   1.930       .  S
C1768      C1769   1.423       .  A
C1769      C1770   1.413       .  A
C1769     Br1776   1.937       .  S
C1770      C1771   1.413       .  A
C1770     Br1775   1.929       .  S
C1771      C1772   1.406       .  A
C1772     Br1773   1.936       .  S
C1777      C1778   1.416       .  A
C1777      C1782   1.404       .  A
C1777     Br1784   1.935       .  S
C1778      C1779   1.405       .  A
C1779      C1780   1.402       .  A
C1779     Br1786   1.931       .  S
C1780      C1781   1.412       .  A
C1780     Br1785   1.921       .  S
C1781      C1782   1.408       .  A
C1782     Br1783   1.931       .  S
C1787      C1788   1.414       .  A
C1787      C1792   1.409       .  A
C1787     Br1794   1.927       .  S
C1788      C1789   1.413       .  A
C1789      C1790   1.413       .  A
C1789     Br1796   1.935       .  S
C1790      C1791   1.421       .  A
C1790     Br1795   1.932       .  S
C1791      C1792   1.417       .  A
C1792     Br1793   1.937       .  S
C1797      C1798   1.417       .  A
C1797      C1802   1.410       .  A
C1797     Br1804   1.931       .  S
C1798      C1799   1.410       .  A
C1799      C1800   1.405       .  A
C1799     Br1806   1.931       .  S
C1800      C1801   1.411       .  A
C1800     Br1805   1.917       .  S
C1801      C1802   1.411       .  A
C1802     Br1803   1.931       .  S
C1807      C1808   1.406       .  A
C1807      C1812   1.405       .  A
C1807     Br1814   1.933       .  S
C1808      C1809   1.408       .  A
C1809      C1810   1.401       .  A
C1809     Br1816   1.913       .  S
C1810      C1811   1.409       .  A
C1810     Br1815   1.935       .  S
C1811      C1812   1.417       .  A
C1812     Br1813   1.933       .  S
C1817      C1818   1.412       .  A
C1817      C1822   1.413       .  A
C1817     Br1824   1.935       .  S
C1818      C1819   1.421       .  A
C1819      C1820   1.413       .  A
C1819     Br1826   1.931       .  S
C1820      C1821   1.414       .  A
C1820     Br1825   1.936       .  S
C1821      C1822   1.421       .  A
C1822     Br1823   1.931       .  S
C1827      C1828   1.410       .  A
C1827      C1832   1.406       .  A
C1827     Br1834   1.927       .  S
C1828      C1829   1.408       .  A
C1829      C1830   1.403       .  A
C1829     Br1836   1.933       .  S
C1830      C1831   1.406       .  A
C1830     Br1835   1.928       .  S
C1831      C1832   1.410       .  A
C1832     Br1833   1.932       .  S
