geometry optimzed in LAMMPS
_audit_creation_date              2020-11-30 
_audit_creation_method            'lammps2cif' 
_symmetry_space_group_name_H-M    'P1' 
_symmetry_Int_Tables_number       1 
_symmetry_cell_setting            triclinic 
loop_ 
_symmetry_equiv_pos_as_xyz 
  x,y,z 
_cell_length_a                    59.5313207237809 
_cell_length_b                    57.54161049705343 
_cell_length_c                    30.30905307715501 
_cell_angle_alpha                 81.87055950252807 
_cell_angle_beta                  94.76938595992273 
_cell_angle_gamma                 124.52675694022345 
loop_ 
_atom_site_label 
_atom_site_type_symbol 
_atom_site_fract_x 
_atom_site_fract_y 
_atom_site_fract_z 
_atom_site_charge 
O1          O  0.07520062  0.05477705  0.03912558    -0.75000
O2          O  0.05651984  0.07934158  0.04202033    -0.53910
C3          C  0.07746807  0.07787623  0.03979467     0.78730
O4          O  0.98408765  0.00454859  0.84736454    -0.59600
O5          O  0.97845304  0.46126020  0.86726468    -0.52630
C6          C  0.97930484  0.48065186  0.83880710     0.70740
O7          O  0.00494258  0.07635316  0.92344993    -0.74160
O8          O  0.53101931  0.08303713  0.98443242    -0.54720
C9          C  0.51859240  0.09034628  0.95656772     0.76750
O10         O  0.06632244  0.00413595  0.93819031    -0.59300
O11         O  0.02880869  0.45938581  0.93313807    -0.52420
C12         C  0.05541789  0.47836124  0.93210267     0.73340
Zr13       Zr  0.05138160  0.02389743  0.98358955     2.54710
O14         O  0.08737311  0.06605618  0.93939350    -0.79870
O15         O  0.08103245  0.01076973  0.02144994    -0.93290
Zr16       Zr  0.99728199  0.03155242  0.91048055     2.64680
O17         O  0.03575843  0.06565252  0.86169686    -0.98240
O18         O  0.46564192  0.03741351  0.86353707    -0.80300
O19         O  0.02928957  0.04769404  0.96929957    -0.83660
O20         O  0.01987042  0.00786909  0.92341143    -2.18370
O21         O  0.49499651  0.42753254  0.05796748    -0.67050
O22         O  0.98584051  0.42052095  0.98453225    -0.51610
C23         C  0.99078940  0.41408359  0.02449042     0.71720
O24         O  0.42888496  0.50741057  0.02160953    -0.59960
O25         O  0.46604291  0.04560495  0.05068220    -0.51930
C26         C  0.43965675  0.02963505  0.04189947     0.73520
O27         O  0.42143623  0.44464646  0.94672295    -0.71350
O28         O  0.43695483  0.41743257  0.95592081    -0.50030
C29         C  0.41702435  0.42034805  0.95794529     0.74910
O30         O  0.50180167  0.49423750  0.13463878    -0.66680
O31         O  0.51099026  0.03855331  0.11570419    -0.53880
C32         C  0.50809758  0.01820390  0.14395553     0.73290
Zr33       Zr  0.49619195  0.46915104  0.07191595     2.77540
O34         O  0.46316168  0.43136987  0.12558526    -0.97430
O35         O  0.03425858  0.47284023  0.11599443    -0.78250
Zr36       Zr  0.44162796  0.47728255  0.00140088     2.70070
O37         O  0.41811883  0.44540693  0.06822992    -0.79500
O38         O  0.39418335  0.46165477  0.98980120    -0.98580
Zr39       Zr  0.50642332  0.04187338  0.03637631     2.21500
Zr40       Zr  0.98621874  0.45908654  0.94731912     2.11130
O41         O  0.46373166  0.45311424  0.01469872    -2.47270
O42         O  0.47394133  0.49324047  0.05946070    -0.79290
O43         O  0.01871508  0.47575433  0.00598598    -0.71490
O44         O  0.47394266  0.02547270  0.97670205    -2.32440
O45         O  0.02807606  0.01689454  0.05006941    -2.28650
O46         O  0.46331654  0.48326777  0.93371941    -0.73250
H47         H  0.02875997  0.00984862  0.89658363     0.78750
H48         H  0.46579292  0.03604399  0.97002674     0.79840
H49         H  0.45077713  0.43343307  0.02576839     0.82060
H50         H  0.03892110  0.02225024  0.07691451     0.79670
H51         H  0.44743978  0.02203354  0.87572232     0.42710
H52         H  0.39106840  0.46182344  0.95720775     0.41680
H53         H  0.43193609  0.45067135  0.09225761     0.41350
H54         H  0.45888053  0.41356037  0.11586521     0.39290
H55         H  0.04597799  0.47337456  0.09404395     0.42420
H56         H  0.08381984  0.01615299  0.05200166     0.37200
H57         H  0.08092093  0.07872024  0.93336100     0.43320
H58         H  0.03884796  0.05395380  0.84543501     0.39730
H59         H  0.47382423  0.43347474  0.15340450     0.44650
H60         H  0.09896702  0.02403007  0.00679168     0.43380
H61         H  0.02836759  0.07377461  0.83888121     0.43510
H62         H  0.38312994  0.44134383  0.00188357     0.43870
O63         O  0.46119263  0.42072022  0.44220536    -0.75000
O64         O  0.00907217  0.45099697  0.43701271    -0.53910
C65         C  0.98669768  0.42562914  0.44300043     0.78730
O66         O  0.42459725  0.01808123  0.41463437    -0.59600
O67         O  0.43185532  0.00985290  0.48310251    -0.52630
C68         C  0.41780793  0.01419882  0.45473747     0.70740
O69         O  0.47885633  0.01081372  0.34493784    -0.74160
O70         O  0.01026640  0.00100460  0.35537786    -0.54720
C71         C  0.99512285  0.00657098  0.33001919     0.76750
O72         O  0.41249050  0.42053166  0.54038275    -0.59300
O73         O  0.40801388  0.45261173  0.56834682    -0.52420
C74         C  0.40023222  0.42689944  0.56351457     0.73340
Zr75       Zr  0.44815258  0.44206738  0.48787121     2.54710
O76         O  0.40832446  0.41796196  0.43982468    -0.79870
O77         O  0.43588426  0.39731211  0.53082582    -0.93290
Zr78       Zr  0.45861536  0.00819261  0.41312369     2.64680
O79         O  0.41339298  0.46858685  0.37654321    -0.98240
O80         O  0.46809465  0.05018007  0.36421801    -0.80300
O81         O  0.46669520  0.47326397  0.42142431    -0.83660
O82         O  0.43442299  0.47338152  0.47947495    -2.18370
O83         O  0.49075736  0.48753741  0.62890374    -0.67050
O84         O  0.45668917  0.49474155  0.62394052    -0.51610
C85         C  0.47263168  0.48896256  0.64649849     0.71720
O86         O  0.05523222  0.08017049  0.43941956    -0.59960
O87         O  0.05800677  0.04745945  0.40977678    -0.51930
C88         C  0.06684351  0.07333719  0.41580660     0.73520
O89         O  0.50580580  0.07710455  0.53846922    -0.71350
O90         O  0.46009640  0.04813921  0.54229679    -0.50030
C91         C  0.48258366  0.07346648  0.53650456     0.74910
O92         O  0.05192596  0.99342069  0.53563269    -0.66680
O93         O  0.05326622  0.99655430  0.45961692    -0.53880
C94         C  0.06200414  0.99414740  0.49869030     0.73290
Zr95       Zr  0.01371414  0.99440521  0.56072593     2.77540
O96         O  0.05179013  0.03053108  0.60174251    -0.97430
O97         O  0.01367727  0.45486094  0.60782564    -0.78250
Zr98       Zr  0.01766658  0.05746951  0.48722162     2.70070
O99         O  0.05755972  0.08785768  0.53151000    -0.79500
O100        O  0.01970083  0.09697279  0.44138076    -0.98580
Zr101      Zr  0.01642316  0.99934848  0.43464926     2.21500
Zr102      Zr  0.45309492  0.00033616  0.54440627     2.11130
O103        O  0.50140439  0.02598477  0.55530655    -2.47270
O104        O  0.03282603  0.02689848  0.49617847    -0.79290
O105        O  0.46522098  0.46804964  0.55040888    -0.71490
O106        O  0.00342134  0.03217504  0.42379872    -2.32440
O107        O  0.99785553  0.46749688  0.50105974    -2.28650
O108        O  0.47314656  0.03264099  0.47848091    -0.73250
H109        H  0.41474699  0.46156963  0.47710804     0.78750
H110        H  0.01206613  0.04542113  0.39746414     0.79840
H111        H  0.50700398  0.03603701  0.58130464     0.82060
H112        H  0.00313828  0.45445772  0.50864253     0.79670
H113        H  0.48550605  0.06608880  0.37536115     0.42710
H114        H  0.50563838  0.09391059  0.44128656     0.41680
H115        H  0.06855820  0.07979918  0.53279991     0.41350
H116        H  0.04329118  0.03403637  0.62436323     0.39290
H117        H  0.49538821  0.43892321  0.59865113     0.42420
H118        H  0.45166094  0.40223646  0.55072514     0.37200
H119        H  0.41493735  0.41523013  0.41339796     0.43320
H120        H  0.41965558  0.45815871  0.36425549     0.39730
H121        H  0.05941912  0.02057591  0.61909544     0.44650
H122        H  0.43556024  0.38547296  0.50977721     0.43380
H123        H  0.41027108  0.47871325  0.35012324     0.43510
H124        H  0.02698946  0.11204266  0.46123881     0.43870
O125        O  0.07450004  0.27169810  0.95079695    -0.75000
O126        O  0.04484973  0.22568957  0.93928113    -0.53910
C127        C  0.06922884  0.24730440  0.94716076     0.78730
O128        O  0.99627140  0.22973957  0.13165574    -0.59600
O129        O  0.99051513  0.26612123  0.12059240    -0.52630
C130        C  0.99583868  0.24975243  0.14566183     0.70740
O131        O  0.50064396  0.17867845  0.03348171    -0.74160
O132        O  0.48582582  0.17383831  0.96208845    -0.54720
C133        C  0.49591131  0.16785185  0.99664011     0.76750
O134        O  0.06285157  0.30986511  0.05400972    -0.59300
O135        O  0.03068820  0.31895808  0.05844974    -0.52420
C136        C  0.05538227  0.32571598  0.06163868     0.73340
Zr137      Zr  0.04983133  0.28218055  0.99343466     2.54710
O138        O  0.08852462  0.28511588  0.03293282    -0.79870
O139        O  0.07967435  0.32944307  0.95415297    -0.93290
Zr140      Zr  0.99019342  0.20991662  0.06037113     2.64680
O141        O  0.01474985  0.19558520  0.11256420    -0.98240
O142        O  0.44866142  0.16853933  0.09449400    -0.80300
O143        O  0.02289139  0.23208211  0.00151693    -0.83660
O144        O  0.01831572  0.25979785  0.05318735    -2.18370
O145        O  0.49545376  0.32352559  0.93664470    -0.67050
O146        O  0.98816785  0.31498825  0.01198049    -0.51610
C147        C  0.49147398  0.32898422  0.97379387     0.71720
O148        O  0.44570522  0.20544276  0.90665295    -0.59960
O149        O  0.46110879  0.18018835  0.89793730    -0.51930
C150        C  0.44067808  0.18163738  0.89979875     0.73520
O151        O  0.41222690  0.22377934  0.02022835    -0.71350
O152        O  0.44223911  0.26713256  0.04404201    -0.50030
C153        C  0.41789946  0.24677181  0.03280597     0.74910
O154        O  0.48851133  0.26457652  0.84486981    -0.66680
O155        O  0.49727330  0.23032920  0.85157477    -0.53880
C156        C  0.49036508  0.24615678  0.82903676     0.73290
Zr157      Zr  0.49714604  0.28573597  0.91337323     2.77540
O158        O  0.46689489  0.29262663  0.86269247    -0.97430
O159        O  0.03722029  0.32561282  0.87324739    -0.78250
Zr160      Zr  0.43745693  0.21401563  0.97763309     2.70070
O161        O  0.40424043  0.22029232  0.93564346    -0.79500
O162        O  0.40298480  0.16474403  0.00480678    -0.98580
Zr163      Zr  0.49952393  0.21985449  0.93220341     2.21500
Zr164      Zr  0.98818444  0.27504025  0.04057675     2.11130
O165        O  0.46458643  0.26383168  0.97174840    -2.47270
O166        O  0.47027137  0.23612289  0.92053387    -0.79290
O167        O  0.02093247  0.29820693  0.98154136    -0.71490
O168        O  0.46589838  0.19744805  0.99208446    -2.32440
O169        O  0.02716279  0.27045903  0.92388522    -2.28650
O170        O  0.45989160  0.22475356  0.04778459    -0.73250
H171        H  0.02858933  0.26522131  0.08046043     0.78750
H172        H  0.45393759  0.17699470  0.99350343     0.79840
H173        H  0.45310267  0.27079962  0.96596446     0.82060
H174        H  0.03972231  0.27807779  0.89934985     0.79670
H175        H  0.44830007  0.15218056  0.08687374     0.42710
H176        H  0.41236761  0.15868890  0.02703759     0.41680
H177        H  0.41452946  0.23423139  0.90971779     0.41350
H178        H  0.45230864  0.28899692  0.88184691     0.39290
H179        H  0.04535678  0.34091523  0.89286701     0.42420
H180        H  0.08361471  0.32614474  0.92544322     0.37200
H181        H  0.08055527  0.27160476  0.06026131     0.43320
H182        H  0.03283200  0.21335368  0.11610943     0.39730
H183        H  0.47742910  0.31329219  0.85288639     0.44650
H184        H  0.09712972  0.33775723  0.97081777     0.43380
H185        H  0.00561018  0.19016669  0.14162189     0.43510
H186        H  0.39058314  0.16583595  0.02288344     0.43870
O187        O  0.05550623  0.25292113  0.55618658    -0.75000
O188        O  0.05942957  0.25192854  0.48229548    -0.53910
C189        C  0.06801218  0.25404996  0.52236755     0.78730
O190        O  0.42091805  0.17464536  0.54453955    -0.59600
O191        O  0.40429871  0.20032758  0.52552130    -0.52630
C192        C  0.40131810  0.17597025  0.52965573     0.70740
O193        O  0.47358707  0.17555202  0.44703142    -0.74160
O194        O  0.01792430  0.20513067  0.45521956    -0.54720
C195        C  0.99591913  0.17947377  0.45498399     0.76750
O196        O  0.48850857  0.24416550  0.63192608    -0.59300
O197        O  0.45034365  0.24439379  0.61559426    -0.52420
C198        C  0.46794858  0.24375596  0.64302005     0.73340
Zr199      Zr  0.01228828  0.24695778  0.56858026     2.54710
O200        O  0.00611641  0.20513245  0.61338183    -0.79870
O201        O  0.04524464  0.27871342  0.62078997    -0.93290
Zr202      Zr  0.45590127  0.19228055  0.49187817     2.64680
O203        O  0.45414251  0.15248684  0.53609472    -0.98240
O204        O  0.41839255  0.16053563  0.44494908    -0.80300
O205        O  0.00260110  0.22054413  0.50850578    -0.83660
O206        O  0.46524691  0.21823244  0.55358927    -2.18370
O207        O  0.49830615  0.32737630  0.52785036    -0.67050
O208        O  0.45291406  0.29482085  0.52704723    -0.51610
C209        C  0.47408509  0.32102591  0.52270409     0.71720
O210        O  0.48710011  0.26016557  0.34604354    -0.59960
O211        O  0.02374670  0.25763892  0.36230458    -0.51930
C212        C  0.00744524  0.26045011  0.33453996     0.73520
O213        O  0.42018982  0.25185492  0.42317101    -0.71350
O214        O  0.41529161  0.25246053  0.49713927    -0.50030
C215        C  0.40777143  0.25154696  0.45641790     0.74910
O216        O  0.05162207  0.32639658  0.43134801    -0.66680
O217        O  0.06957598  0.30151555  0.44221948    -0.53880
C218        C  0.07211427  0.32544051  0.44198203     0.73290
Zr219      Zr  0.01884097  0.31035326  0.48810134     2.77540
O220        O  0.02844143  0.35450967  0.44656414    -0.97430
O221        O  0.05685551  0.33814967  0.53746014    -0.78250
Zr222      Zr  0.46225418  0.25538183  0.40961021     2.70070
O223        O  0.46715884  0.29641084  0.36414133    -0.79500
O224        O  0.43018249  0.22391080  0.35625953    -0.98580
Zr225      Zr  0.02469119  0.25363528  0.44433359     2.21500
Zr226      Zr  0.44894630  0.24820804  0.53353778     2.11130
O227        O  0.47207412  0.28154064  0.46927898    -2.47270
O228        O  0.00937242  0.28451383  0.42634432    -0.79290
O229        O  0.49641450  0.27723491  0.55144870    -0.71490
O230        O  0.47738260  0.22492870  0.42739989    -2.32440
O231        O  0.03406746  0.28019999  0.50636112    -2.28650
O232        O  0.44001959  0.22191485  0.47220375    -0.73250
H233        H  0.45747458  0.20640012  0.58142619     0.78750
H234        H  0.47426059  0.21496342  0.40208859     0.79840
H235        H  0.46563268  0.29331714  0.45828529     0.82060
H236        H  0.05303244  0.29167985  0.51483571     0.79670
H237        H  0.42580459  0.16694344  0.41432036     0.42710
H238        H  0.42107505  0.20459314  0.37255408     0.41680
H239        H  0.48472659  0.31286455  0.37377173     0.41350
H240        H  0.51183657  0.34898510  0.42782677     0.39290
H241        H  0.04871050  0.33168667  0.56758230     0.42420
H242        H  0.06115122  0.29371860  0.60231098     0.37200
H243        H  0.00778367  0.19470848  0.59194484     0.43320
H244        H  0.45140697  0.15383170  0.56715470     0.39730
H245        H  0.02855988  0.36581959  0.46842305     0.44650
H246        H  0.05155440  0.26765799  0.63873015     0.43380
H247        H  0.43668399  0.13543022  0.52756935     0.43510
H248        H  0.41588370  0.22777677  0.35204745     0.43870
O249        O  0.17508562  0.43693434  0.05896939    -0.75000
O250        O  0.16726869  0.42665720  0.98720576    -0.53910
C251        C  0.15973241  0.42244904  0.02756780     0.78730
O252        O  0.24711431  0.07518435  0.02355831    -0.59600
O253        O  0.28601135  0.08303442  0.05807251    -0.52630
C254        C  0.26778602  0.08874960  0.04908981     0.70740
O255        O  0.17491395  0.00745232  0.95866410    -0.74160
O256        O  0.16451292  0.46751827  0.93154937    -0.54720
C257        C  0.15793514  0.48426928  0.94167602     0.76750
O258        O  0.24465480  0.50135162  0.13340024    -0.59300
O259        O  0.28625390  0.04114597  0.11746421    -0.52420
C260        C  0.26593854  0.02374620  0.14407642     0.73340
Zr261      Zr  0.22212469  0.47553729  0.06998357     2.54710
O262        O  0.19072745  0.47217549  0.12112624    -0.79870
O263        O  0.22324060  0.43801128  0.11623663    -0.93290
Zr264      Zr  0.22276513  0.03437235  0.98286695     2.64680
O265        O  0.19052348  0.03704396  0.02278984    -0.98240
O266        O  0.22819783  0.06983781  0.92234203    -0.80300
O267        O  0.20198466  0.48569437  0.00643851    -0.83660
O268        O  0.24253507  0.02432112  0.04760371    -2.18370
O269        O  0.32161114  0.00399119  0.02738066    -0.67050
O270        O  0.33233597  0.04437848  0.05323965    -0.51610
C271        C  0.33888854  0.02723046  0.04464146     0.71720
O272        O  0.24907523  0.00826030  0.84658835    -0.59960
O273        O  0.20625012  0.46855629  0.86624688    -0.51930
C274        C  0.22497201  0.48595035  0.83750216     0.73520
O275        O  0.31860837  0.07382153  0.91812679    -0.71350
O276        O  0.32763551  0.08479382  0.99019864    -0.50030
C277        C  0.33383638  0.08877214  0.94875281     0.74910
O278        O  0.25457893  0.44214447  0.94829257    -0.66680
O279        O  0.21143552  0.42918850  0.92770100    -0.53880
C280        C  0.23164479  0.42642596  0.92922395     0.73290
Zr281      Zr  0.27425553  0.47748972  0.99856080     2.77540
O282        O  0.30412556  0.46994315  0.96147833    -0.97430
O283        O  0.26568895  0.43999607  0.05754584    -0.78250
Zr284      Zr  0.27314806  0.03408342  0.91043899     2.70070
O285        O  0.30374241  0.03414897  0.86181708    -0.79500
O286        O  0.27252154  0.07139419  0.86249925    -0.98580
Zr287      Zr  0.20623328  0.46605064  0.94673588     2.21500
Zr288      Zr  0.29017234  0.04546674  0.03594269     2.11130
O289        O  0.29428024  0.02568657  0.97521856    -2.47270
O290        O  0.25311290  0.48584442  0.93373010    -0.79290
O291        O  0.26932810  0.49605877  0.05902440    -0.71490
O292        O  0.22678270  0.01521359  0.92239693    -2.32440
O293        O  0.22683573  0.45547427  0.01152479    -2.28650
O294        O  0.26968097  0.05501501  0.96965320    -0.73250
H295        H  0.24007692  0.03206374  0.07144041     0.78750
H296        H  0.21813334  0.01822506  0.89582677     0.79840
H297        H  0.31310070  0.03377062  0.96874816     0.82060
H298        H  0.21767856  0.43516225  0.01885197     0.79670
H299        H  0.21164681  0.05953071  0.90372324     0.42710
H300        H  0.28040847  0.08720764  0.88103863     0.41680
H301        H  0.30757386  0.02059041  0.87823743     0.41350
H302        H  0.31941441  0.98914176  0.94962593     0.39290
H303        H  0.27825299  0.45015231  0.08190706     0.42420
H304        H  0.20942431  0.42043166  0.10287191     0.37200
H305        H  0.18525090  0.48458159  0.10555721     0.43320
H306        H  0.19508956  0.03529001  0.05471823     0.39730
H307        H  0.31228828  0.46336374  0.98548959     0.44650
H308        H  0.21509024  0.43608978  0.14480990     0.43380
H309        H  0.19573285  0.05683239  0.01568367     0.43510
H310        H  0.28662030  0.07814451  0.83978961     0.43870
O311        O  0.25340393  0.07199701  0.54388580    -0.75000
O312        O  0.20946838  0.03613608  0.56157777    -0.53910
C313        C  0.22997702  0.06284027  0.55815497     0.78730
O314        O  0.23439944  0.01363667  0.34758115    -0.59600
O315        O  0.27468667  0.01747778  0.35934003    -0.52630
C316        C  0.25672073  0.01798073  0.33363597     0.70740
O317        O  0.17459596  0.50661149  0.44190197    -0.74160
O318        O  0.16961387  0.49789654  0.51775852    -0.54720
C319        C  0.16298183  0.50361680  0.47875149     0.76750
O320        O  0.30115734  0.07544236  0.43833343    -0.59300
O321        O  0.31963544  0.05131685  0.44311556    -0.52420
C322        C  0.32192002  0.07483650  0.44476402     0.73340
Zr323      Zr  0.26955245  0.05460336  0.49778512     2.54710
O324        O  0.27930381  0.10102009  0.46853957    -0.79870
O325        O  0.30865882  0.07953618  0.54677349    -0.93290
Zr326      Zr  0.21326166  0.50593857  0.41660475     2.64680
O327        O  0.21025103  0.04370091  0.37175469    -0.98240
O328        O  0.17650132  0.47132423  0.37176857    -0.80300
O329        O  0.22218777  0.02706994  0.48368126    -0.83660
O330        O  0.25706700  0.03404319  0.42953256    -2.18370
O331        O  0.30960596  0.49141851  0.56995248    -0.67050
O332        O  0.29944164  0.49953499  0.50466228    -0.51610
C333        C  0.31599193  0.49691524  0.52932663     0.71720
O334        O  0.17998624  0.41935536  0.54341924    -0.59960
O335        O  0.16013194  0.44222064  0.54280313    -0.51930
C336        C  0.15856868  0.41918978  0.53871257     0.73520
O337        O  0.22801300  0.43656498  0.41553594    -0.71350
O338        O  0.27369077  0.46300475  0.41711185    -0.50030
C339        C  0.25060299  0.43915306  0.41235552     0.74910
O340        O  0.24361473  0.48272442  0.63704552    -0.66680
O341        O  0.20559629  0.48336320  0.62301037    -0.53880
C342        C  0.22310899  0.48225234  0.64932717     0.73290
Zr343      Zr  0.26652186  0.48779886  0.56930735     2.77540
O344        O  0.25491732  0.44139583  0.60352536    -0.97430
O345        O  0.30394879  0.01722856  0.61397489    -0.78250
Zr346      Zr  0.21115190  0.44037293  0.48246343     2.70070
O347        O  0.21606653  0.40147447  0.50896941    -0.79500
O348        O  0.17030722  0.40503726  0.44504387    -0.98580
Zr349      Zr  0.20392553  0.49099490  0.54295564     2.21500
Zr350      Zr  0.27914793  0.50585202  0.43856865     2.11130
O351        O  0.25798471  0.46749581  0.49934916    -2.47270
O352        O  0.21955174  0.46020423  0.55125735    -0.79290
O353        O  0.28630962  0.02571830  0.50585631    -0.71490
O354        O  0.19326892  0.46889424  0.47504244    -2.32440
O355        O  0.25035100  0.01840973  0.55823979    -2.28650
O356        O  0.23115774  0.47783619  0.42397624    -0.73250
H357        H  0.26341785  0.04740335  0.40281293     0.78750
H358        H  0.17404499  0.45764560  0.46797587     0.79840
H359        H  0.26316803  0.45415680  0.50127712     0.82060
H360        H  0.25437029  0.02741198  0.58502638     0.79670
H361        H  0.15963266  0.46378339  0.38842763     0.42710
H362        H  0.17116820  0.41455760  0.41472194     0.41680
H363        H  0.21523285  0.39979549  0.54184175     0.41350
H364        H  0.26348516  0.43599433  0.58423967     0.39290
H365        H  0.30593817  0.03567631  0.61014802     0.42420
H366        H  0.30075620  0.07462590  0.57683167     0.37200
H367        H  0.27264920  0.09896679  0.43734782     0.43320
H368        H  0.22981138  0.05896930  0.36704970     0.39730
H369        H  0.26577990  0.44531109  0.63142191     0.44650
H370        H  0.31553818  0.09981197  0.53902131     0.43380
H371        H  0.20349049  0.03686433  0.34218262     0.43510
H372        H  0.17357240  0.39046102  0.44064244     0.43870
O373        O  0.24862667  0.18771899  0.08903200    -0.75000
O374        O  0.25233622  0.18061031  0.01807901    -0.53910
C375        C  0.25225004  0.17513385  0.06069744     0.78730
O376        O  0.16542796  0.23482867  0.02451741    -0.59600
O377        O  0.19411046  0.28213233  0.01264352    -0.52630
C378        C  0.16967997  0.25888697  0.01183733     0.70740
O379        O  0.18020626  0.18799207  0.94324465    -0.74160
O380        O  0.20307293  0.16952920  0.96960610    -0.54720
C381        C  0.18009532  0.16680422  0.95974600     0.76750
O382        O  0.23794620  0.25131649  0.14402053    -0.59300
O383        O  0.23589981  0.28922398  0.11574607    -0.52420
C384        C  0.23620449  0.27223034  0.14860984     0.73340
Zr385      Zr  0.24147626  0.22673707  0.08793532     2.54710
O386        O  0.20179244  0.18826562  0.13062819    -0.79870
O387        O  0.27349688  0.23269888  0.14802297    -0.93290
Zr388      Zr  0.19015540  0.22048434  0.99341406     2.64680
O389        O  0.15582990  0.17940322  0.04167125    -0.98240
O390        O  0.15929384  0.22254229  0.93779790    -0.80300
O391        O  0.21703453  0.20374937  0.02479790    -0.83660
O392        O  0.21353194  0.24258594  0.05771960    -2.18370
O393        O  0.30736781  0.32082635  0.05653511    -0.67050
O394        O  0.28574909  0.34051118  0.03132367    -0.51610
C395        C  0.30844379  0.34251440  0.03774109     0.71720
O396        O  0.25179975  0.25609539  0.85949066    -0.59960
O397        O  0.25136029  0.21669139  0.88826371    -0.51930
C398        C  0.25137495  0.23378335  0.85547939     0.73520
O399        O  0.24085806  0.31976405  0.91823467    -0.71350
O400        O  0.23749245  0.32719516  0.98895704    -0.50030
C401        C  0.23663168  0.33196453  0.94657306     0.74910
O402        O  0.32440373  0.26500245  0.00539798    -0.66680
O403        O  0.29588813  0.22329104  0.97526082    -0.53880
C404        C  0.31923639  0.24238780  0.99200676     0.73290
Zr405      Zr  0.30148754  0.28784949  0.00926156     2.77540
O406        O  0.33335036  0.32078459  0.95027676    -0.97430
O407        O  0.34285218  0.30648696  0.05411512    -0.78250
Zr408      Zr  0.24951556  0.28194396  0.91519648     2.70070
O409        O  0.28704492  0.32053509  0.86888604    -0.79500
O410        O  0.21615394  0.27464520  0.85643694    -0.98580
Zr411      Zr  0.24967174  0.21575073  0.96930682     2.21500
Zr412      Zr  0.24122405  0.29250808  0.03417644     2.11130
O413        O  0.27379596  0.30361622  0.97794939    -2.47270
O414        O  0.27779389  0.26591639  0.94491623    -0.79290
O415        O  0.26965216  0.27649110  0.06493009    -0.71490
O416        O  0.22265887  0.23309323  0.93834098    -2.32440
O417        O  0.27356328  0.23892389  0.03355933    -2.28650
O418        O  0.21763792  0.26943983  0.97058890    -0.73250
H419        H  0.20063199  0.23834547  0.07995852     0.78750
H420        H  0.21473416  0.22610800  0.91021760     0.79840
H421        H  0.28479197  0.32331895  0.96583111     0.82060
H422        H  0.28447611  0.23249573  0.04786840     0.79670
H423        H  0.16844007  0.22720468  0.90895056     0.42710
H424        H  0.21520933  0.29140689  0.85372974     0.41680
H425        H  0.29731744  0.31276961  0.86173808     0.41350
H426        H  0.32543880  0.33090525  0.93495301     0.39290
H427        H  0.33677237  0.29416140  0.08290160     0.42420
H428        H  0.28849187  0.23382571  0.13374285     0.37200
H429        H  0.19558837  0.17118021  0.11616337     0.43320
H430        H  0.15401232  0.18721300  0.06718545     0.39730
H431        H  0.34974945  0.33511673  0.96591029     0.44650
H432        H  0.26408114  0.21417100  0.16689988     0.43380
H433        H  0.16476017  0.16980270  0.05463460     0.43510
H434        H  0.22500982  0.27696878  0.82843164     0.43870
O435        O  0.18288248  0.18334227  0.42820746    -0.75000
O436        O  0.16295412  0.20693715  0.42456719    -0.53910
C437        C  0.16200146  0.18404618  0.42142029     0.78730
O438        O  0.22640657  0.23265063  0.64701111    -0.59600
O439        O  0.26525675  0.23455105  0.64106635    -0.52630
C440        C  0.24655968  0.23189032  0.66433606     0.70740
O441        O  0.16866789  0.24164319  0.55880594    -0.74160
O442        O  0.16585007  0.24928232  0.48296343    -0.54720
C443        C  0.15793174  0.24600160  0.52314211     0.76750
O444        O  0.22266278  0.16609664  0.54016554    -0.59300
O445        O  0.26398099  0.19530045  0.57266283    -0.52420
C446        C  0.24376449  0.17047253  0.56194602     0.73340
Zr447      Zr  0.20991312  0.19388100  0.49404906     2.54710
O448        O  0.16629244  0.15653374  0.52858656    -0.79870
O449        O  0.21478911  0.16209883  0.45675486    -0.93290
Zr450      Zr  0.20611612  0.23742952  0.57580688     2.64680
O451        O  0.16804096  0.19297328  0.61186575    -0.98240
O452        O  0.20606725  0.26713782  0.62555383    -0.80300
O453        O  0.18973660  0.21757430  0.50698088    -0.83660
O454        O  0.22466156  0.21204477  0.56363828    -2.18370
O455        O  0.30619345  0.25719768  0.45136245    -0.67050
O456        O  0.31058520  0.24870416  0.52655584    -0.51610
C457        C  0.31746261  0.25240003  0.48576326     0.71720
O458        O  0.24634398  0.32993279  0.47460374    -0.59960
O459        O  0.21468410  0.30401356  0.42323570    -0.51930
C460        C  0.23138881  0.32773675  0.44054227     0.73520
O461        O  0.28582462  0.30573182  0.58628207    -0.71350
O462        O  0.31235150  0.29044746  0.58535392    -0.50030
C463        C  0.30955422  0.31075852  0.58933402     0.74910
O464        O  0.25334351  0.27267051  0.36078063    -0.66680
O465        O  0.21069721  0.26279444  0.36385169    -0.53880
C466        C  0.23196438  0.27007059  0.34177395     0.73290
Zr467      Zr  0.27082791  0.26413410  0.43234252     2.77540
O468        O  0.31030714  0.30916439  0.40070801    -0.97430
O469        O  0.27247126  0.23764904  0.37819515    -0.78250
Zr470      Zr  0.26596730  0.30661841  0.51401445     2.70070
O471        O  0.30690537  0.34138219  0.47009973    -0.79500
O472        O  0.26734286  0.34288491  0.55051520    -0.98580
Zr473      Zr  0.20299950  0.25441455  0.44566578     2.21500
Zr474      Zr  0.27303766  0.24447986  0.56046519     2.11130
O475        O  0.28681430  0.28321355  0.50126659    -2.47270
O476        O  0.25107135  0.28808172  0.44481374    -0.79290
O477        O  0.25759553  0.22618012  0.49015989    -0.71490
O478        O  0.21845593  0.27406732  0.51571834    -2.32680
O479        O  0.22388588  0.23076540  0.43398197    -2.28650
O480        O  0.25342271  0.26965033  0.57274983    -0.73250
H481        H  0.21933424  0.19694305  0.58774755     0.78750
H482        H  0.21096318  0.28457789  0.52061441     0.79840
H483        H  0.30644409  0.29627716  0.50036326     0.82060
H484        H  0.22000300  0.22473521  0.40456816     0.79670
H485        H  0.22101563  0.28672647  0.61443599     0.42710
H486        H  0.24802990  0.33551997  0.55529000     0.41680
H487        H  0.30025107  0.34812936  0.44371036     0.41350
H488        H  0.32561645  0.31278718  0.42103199     0.39290
H489        H  0.26075303  0.21752749  0.39106580     0.42420
H490        H  0.21560868  0.16839821  0.42445638     0.37200
H491        H  0.15353564  0.16205745  0.51839158     0.43320
H492        H  0.17530937  0.18123256  0.62113843     0.39730
H493        H  0.31426070  0.30472043  0.37315132     0.44650
H494        H  0.19726949  0.14328510  0.46106050     0.43380
H495        H  0.16558355  0.19802730  0.64014654     0.43510
H496        H  0.27428059  0.34205039  0.58112830     0.43870
C497        C  0.22548929  0.22366296  0.73755659    -0.11980
C498        C  0.24756419  0.22824231  0.71456972     0.05030
C499        C  0.26932526  0.22971154  0.74049297    -0.07260
C500        C  0.26943029  0.22915680  0.78735728    -0.08010
C501        C  0.24818435  0.22680597  0.80908596    -0.02560
C502        C  0.22539271  0.22264122  0.78394245     0.04260
N503        N  0.20197267  0.21752867  0.80509801     0.66760
H504        H  0.20785817  0.22093907  0.71935470     0.15660
H505        H  0.28693200  0.23220910  0.80651230     0.15370
N506        N  0.29174326  0.23243137  0.72033820     0.74470
O507        O  0.18826212  0.22644499  0.78533372    -0.38980
O508        O  0.19284851  0.20095425  0.84077479    -0.38920
O509        O  0.30784792  0.25466579  0.69527983    -0.39630
O510        O  0.29870341  0.21570382  0.73480540    -0.39690
C511        C  0.25492713  0.27699064  0.27106116    -0.11980
C512        C  0.23295927  0.27456957  0.29106269     0.05030
C513        C  0.21315517  0.27514212  0.26196762    -0.07260
C514        C  0.21503078  0.27599018  0.21500414    -0.08010
C515        C  0.23661732  0.27716476  0.19613520    -0.02560
C516        C  0.25712136  0.27848635  0.22493500     0.04260
N517        N  0.28027709  0.28078507  0.20791232     0.66760
H518        H  0.27090554  0.27739611  0.29153347     0.15660
H519        H  0.19925321  0.27510994  0.19322210     0.15370
N520        N  0.19136026  0.27518588  0.27896361     0.74470
O521        O  0.29187876  0.29674223  0.17255334    -0.38980
O522        O  0.29058058  0.26869116  0.23007595    -0.38920
O523        O  0.19642259  0.29210603  0.30656112    -0.39630
O524        O  0.16805332  0.26198968  0.26103691    -0.39690
C525        C  0.26255395  0.38046273  0.43142584    -0.11980
C526        C  0.23658236  0.35619185  0.42179364     0.05030
C527        C  0.21751080  0.36102613  0.39929506    -0.07260
C528        C  0.22392722  0.38907703  0.39190720    -0.08010
C529        C  0.24871471  0.41257626  0.40674798    -0.02560
C530        C  0.26854931  0.40799188  0.42491060     0.04260
N531        N  0.29390917  0.43048847  0.44131257     0.66760
H532        H  0.27835991  0.37806551  0.44666312     0.15660
H533        H  0.20844331  0.39219655  0.37737157     0.15370
N534        N  0.19121486  0.33817653  0.38585672     0.74470
O535        O  0.29806348  0.43130965  0.48275084    -0.38980
O536        O  0.31304089  0.44796786  0.41455833    -0.38920
O537        O  0.17715526  0.31589244  0.41217499    -0.39630
O538        O  0.18024365  0.34195290  0.35061490    -0.39690
C539        C  0.24214934  0.13424186  0.52685290    -0.11980
C540        C  0.24422139  0.14437528  0.56751794     0.05030
C541        C  0.23790526  0.12525335  0.60722857    -0.07260
C542        C  0.23104623  0.09727554  0.60418373    -0.08010
C543        C  0.22771431  0.08706427  0.56268096    -0.02560
C544        C  0.23250536  0.10596520  0.52341920     0.04260
N545        N  0.22809464  0.09697799  0.47939791     0.66760
H546        H  0.24636637  0.14844619  0.49646026     0.15660
H547        H  0.22857909  0.08345162  0.63427169     0.15370
N548        N  0.23848618  0.13355410  0.65034407     0.74470
O549        O  0.23707471  0.11509918  0.44531284    -0.38980
O550        O  0.21281974  0.07103849  0.47372302    -0.38920
O551        O  0.24210671  0.15704365  0.65397470    -0.39630
O552        O  0.23532646  0.11727339  0.68541056    -0.39690
C553        C  0.21835537  0.00079400  0.76078271    -0.11980
C554        C  0.21960115  0.48109252  0.79029193     0.05030
C555        C  0.22170170  0.46086401  0.77283374    -0.07260
C556        C  0.22225286  0.46149688  0.72654198    -0.08010
C557        C  0.22034420  0.48144583  0.69738294    -0.02560
C558        C  0.21933117  0.00172265  0.71449507     0.04260
N559        N  0.21867320  0.02361524  0.68621433     0.66760
H560        H  0.21701077  0.01644825  0.77426224     0.15660
H561        H  0.22423109  0.44627948  0.71301141     0.15370
N562        N  0.22386033  0.44001619  0.80119066     0.74470
O563        O  0.20451889  0.03193302  0.69705644    -0.38980
O564        O  0.23545907  0.03776592  0.65466849    -0.38920
O565        O  0.20856921  0.42675693  0.83467011    -0.39630
O566        O  0.23685991  0.43092277  0.78820719    -0.39690
C567        C  0.24156500  0.02245249  0.25578604    -0.11980
C568        C  0.26176182  0.02351877  0.28453309     0.05030
C569        C  0.28576891  0.02930759  0.26533943    -0.07260
C570        C  0.28808933  0.03227364  0.21878303    -0.08010
C571        C  0.26690191  0.02911846  0.19070986    -0.02560
C572        C  0.24379048  0.02522588  0.20946468     0.04260
N573        N  0.22213605  0.02357780  0.18195422     0.66760
H574        H  0.22640801  0.51882789  0.27127709     0.15660
H575        H  0.30568188  0.03494213  0.20473514     0.15370
N576        N  0.30753805  0.03102098  0.29210809     0.74470
O577        O  0.19971015  0.50773764  0.19892554    -0.38980
O578        O  0.22754509  0.03977353  0.14597466    -0.38920
O579        O  0.30475566  0.00847845  0.31074377    -0.39630
O580        O  0.33114888  0.05362334  0.28815792    -0.39690
C581        C  0.24978798  0.37740818  0.90224092    -0.11980
C582        C  0.23075478  0.35352379  0.93030171     0.05030
C583        C  0.20895790  0.35314040  0.94754794    -0.07260
C584        C  0.20630090  0.37568064  0.93444448    -0.08010
C585        C  0.22789751  0.40126673  0.91407172    -0.02560
C586        C  0.24991657  0.40220396  0.89658553     0.04260
N587        N  0.27369120  0.42847370  0.87755451     0.66760
H588        H  0.26654636  0.37795922  0.88936385     0.15660
H589        H  0.19008716  0.37531814  0.94918218     0.15370
N590        N  0.19164379  0.33276815  0.98318468     0.74470
O591        O  0.29624967  0.43115100  0.87696355    -0.38980
O592        O  0.27254336  0.44930730  0.86195257    -0.38920
O593        O  0.20217632  0.33309903  0.02116750    -0.39630
O594        O  0.16669433  0.32362853  0.98159396    -0.39690
C595        C  0.24164452  0.10361236  0.08052879    -0.11980
C596        C  0.26775291  0.11097147  0.06979756     0.05030
C597        C  0.28994947  0.13981388  0.07007630    -0.07260
C598        C  0.28424557  0.16028338  0.07361544    -0.08010
C599        C  0.25745090  0.15298444  0.07673160    -0.02560
C600        C  0.23589439  0.12402657  0.08234548     0.04260
N601        N  0.20789261  0.11490840  0.08552049     0.66760
H602        H  0.22483044  0.08145762  0.08327768     0.15660
H603        H  0.30069104  0.18251671  0.06961769     0.15370
N604        N  0.31795136  0.14932787  0.06539651     0.74470
O605        O  0.18875799  0.09009979  0.07804020    -0.38980
O606        O  0.20197133  0.13081085  0.09805484    -0.38920
O607        O  0.32423860  0.13584503  0.04587901    -0.39630
O608        O  0.33688962  0.17213158  0.08001017    -0.39690
C609        C  0.37753468  0.12437686  0.52185705    -0.11980
C610        C  0.37878190  0.14983805  0.50926142     0.05030
C611        C  0.36335549  0.15028162  0.47147667    -0.07260
C612        C  0.34755688  0.12626318  0.44855409    -0.08010
C613        C  0.34600817  0.10093070  0.46160867    -0.02560
C614        C  0.36202099  0.10048201  0.49818229     0.04260
N615        N  0.36237305  0.07594595  0.51276248     0.66760
H616        H  0.38935069  0.12310378  0.55011088     0.15660
H617        H  0.33571514  0.12728642  0.42008528     0.15370
N618        N  0.36487354  0.17526409  0.45293469     0.74470
O619        O  0.38484472  0.07830962  0.51600639    -0.38980
O620        O  0.34165123  0.05400433  0.53152893    -0.38920
O621        O  0.38650391  0.19506329  0.43333136    -0.39630
O622        O  0.34299068  0.17339103  0.44216372    -0.39690
C623        C  0.11084320  0.34546013  0.49784828    -0.11980
C624        C  0.09600265  0.35032512  0.46368573     0.05030
C625        C  0.10064453  0.37781180  0.45728957    -0.07260
C626        C  0.11871851  0.39860988  0.48576308    -0.08010
C627        C  0.13397503  0.39391933  0.51921046    -0.02560
C628        C  0.12990113  0.36672009  0.52483173     0.04260
N629        N  0.14502071  0.36019342  0.55762389     0.66760
H630        H  0.10684441  0.32447142  0.50503618     0.15660
H631        H  0.12251352  0.41955396  0.47929440     0.15370
N632        N  0.08813621  0.38557265  0.42091165     0.74470
O633        O  0.14916413  0.36812223  0.59595688    -0.38980
O634        O  0.15232703  0.34445404  0.54957995    -0.38920
O635        O  0.08346071  0.40409265  0.42427545    -0.39630
O636        O  0.08556930  0.37728128  0.38328378    -0.39690
C637        C  0.36159986  0.22628715  0.48043362    -0.11980
C638        C  0.38166772  0.24778268  0.45039480     0.05030
C639        C  0.37965010  0.27000838  0.42993577    -0.07260
C640        C  0.35853823  0.27130050  0.44317121    -0.08010
C641        C  0.33984923  0.25091383  0.47596628    -0.02560
C642        C  0.34078302  0.22764827  0.49365387     0.04260
N643        N  0.32129691  0.20560587  0.52549441     0.66760
H644        H  0.36396569  0.21006180  0.49807039     0.15660
H645        H  0.35683958  0.28853462  0.42834618     0.15370
N646        N  0.39964072  0.29220871  0.39861354     0.74470
O647        O  0.30908888  0.18001515  0.51838268    -0.38980
O648        O  0.32130890  0.21104004  0.56440421    -0.38920
O649        O  0.41007092  0.28658999  0.37080540    -0.39630
O650        O  0.40442655  0.31676279  0.39495235    -0.39690
C651        C  0.09908578  0.24448234  0.56650926    -0.11980
C652        C  0.09416861  0.25767962  0.52822691     0.05030
C653        C  0.11239269  0.27002243  0.49191843    -0.07260
C654        C  0.13289925  0.26590918  0.49243447    -0.08010
C655        C  0.13620469  0.24994613  0.52805928    -0.02560
C656        C  0.12003471  0.24026670  0.56686448     0.04260
N657        N  0.12321153  0.22473144  0.60538314     0.66760
H658        H  0.08522060  0.23520783  0.59450664     0.15660
H659        H  0.14572501  0.27453649  0.46336486     0.15370
N660        N  0.10915332  0.28467125  0.45222432     0.74470
O661        O  0.12232776  0.23027126  0.64380630    -0.38980
O662        O  0.12146657  0.20221144  0.60149957    -0.38920
O663        O  0.12508873  0.31135875  0.44576117    -0.39630
O664        O  0.09739798  0.27117824  0.41899188    -0.39690
C665        C  0.45980029  0.22076486  0.76663382    -0.11980
C666        C  0.48438612  0.24426585  0.78106322     0.05030
C667        C  0.50038128  0.26848850  0.75058800    -0.07260
C668        C  0.49125574  0.26895936  0.70668043    -0.08010
C669        C  0.46757895  0.24510447  0.69112612    -0.02560
C670        C  0.45127643  0.22062837  0.72160668     0.04260
N671        N  0.42663804  0.19561760  0.70753576     0.66760
H672        H  0.44708223  0.20268343  0.79076307     0.15660
H673        H  0.00472199  0.28721392  0.68311766     0.15370
N674        N  0.02687282  0.29213816  0.76341531     0.74470
O675        O  0.41621928  0.17202633  0.73145595    -0.38980
O676        O  0.41387617  0.19734045  0.67322493    -0.38920
O677        O  0.04165021  0.28804503  0.79122693    -0.39630
O678        O  0.03680296  0.31664161  0.74286026    -0.39690
C679        C  0.49505724  0.27098359  0.21133615    -0.11980
C680        C  0.00251056  0.25509768  0.19350323     0.05030
C681        C  0.01730118  0.24611977  0.22126429    -0.07260
C682        C  0.02003786  0.24904077  0.26725342    -0.08010
C683        C  0.01055132  0.26308365  0.28540498    -0.02560
C684        C  0.50004179  0.27619674  0.25605439     0.04260
N685        N  0.49448519  0.29509752  0.27109200     0.66760
H686        H  0.48550021  0.27987257  0.19017336     0.15660
H687        H  0.02953156  0.24025283  0.28887860     0.15370
N688        N  0.03122915  0.23595097  0.20294739     0.74470
O689        O  0.51113339  0.31317236  0.29663893    -0.38980
O690        O  0.47470547  0.29601619  0.25501714    -0.38920
O691        O  0.04718352  0.25059831  0.17047454    -0.39630
O692        O  0.03208168  0.21597495  0.22431117    -0.39690
C693        C  0.39233475  0.16157240  0.91047370    -0.11980
C694        C  0.41231232  0.15667468  0.90339563     0.05030
C695        C  0.40477226  0.12852794  0.90553974    -0.07260
C696        C  0.37843783  0.10643748  0.91930993    -0.08010
C697        C  0.36045136  0.11227857  0.93360045    -0.02560
C698        C  0.36693633  0.13995511  0.92813130     0.04260
N699        N  0.34861095  0.14654497  0.94155270     0.66760
H700        H  0.39690838  0.18259642  0.90378340     0.15660
H701        H  0.37239505  0.08466048  0.92094726     0.15370
N702        N  0.42305218  0.12191687  0.89321316     0.74470
O703        O  0.35787699  0.16905368  0.95887265    -0.38980
O704        O  0.32314452  0.12994398  0.93671311    -0.38920
O705        O  0.44055948  0.12298612  0.92092425    -0.39630
O706        O  0.41762190  0.10895864  0.85948265    -0.39690
C707        C  0.08269732  0.37267962  0.02499573    -0.11980
C708        C  0.07800598  0.35490434  0.06459944     0.05030
C709        C  0.09994815  0.36096000  0.09368917    -0.07260
C710        C  0.12622607  0.38406368  0.08169173    -0.08010
C711        C  0.13135933  0.39962703  0.03934696    -0.02560
C712        C  0.10916519  0.39371668  0.01048563     0.04260
N713        N  0.11271637  0.40677267  0.96530114     0.66760
H714        H  0.06611475  0.36689613  0.00139787     0.15660
H715        H  0.14301799  0.38828164  0.10403336     0.15370
N716        N  0.09638304  0.34199160  0.13273264     0.74470
O717        O  0.12433953  0.40226876  0.93793704    -0.38980
O718        O  0.09696125  0.41410249  0.95006959    -0.38920
O719        O  0.09470195  0.31947970  0.12898203    -0.39630
O720        O  0.10137488  0.35076485  0.17050897    -0.39690
C721        C  0.38795006  0.25411790  0.98108659    -0.11980
C722        C  0.39472470  0.25011212  0.02593371     0.05030
C723        C  0.37507783  0.24099992  0.05892959    -0.07260
C724        C  0.34943453  0.23603722  0.04578737    -0.08010
C725        C  0.34232683  0.23904173  0.00064791    -0.02560
C726        C  0.36222510  0.24864341  0.96786236     0.04260
N727        N  0.35704697  0.25356709  0.92131798     0.66760
H728        H  0.40277618  0.26070091  0.95562365     0.15660
H729        H  0.33517026  0.23105804  0.07133557     0.15370
N730        N  0.38081074  0.23716121  0.10554377     0.74470
O731        O  0.37664236  0.27001061  0.89472607    -0.38980
O732        O  0.33312164  0.23977552  0.90577526    -0.38920
O733        O  0.40508290  0.24960954  0.11961814    -0.39630
O734        O  0.36163614  0.22327228  0.13350357    -0.39690
C735        C  0.11977031  0.23687787  0.01517034    -0.11980
C736        C  0.14461009  0.25742218  0.99312584     0.05030
C737        C  0.14292398  0.26993545  0.94991172    -0.07260
C738        C  0.11754898  0.26482272  0.93415381    -0.08010
C739        C  0.09305690  0.24513582  0.95734989    -0.02560
C740        C  0.09437091  0.23020753  0.99760351     0.04260
N741        N  0.07033201  0.20916666  0.02262205     0.66760
H742        H  0.12004046  0.22558843  0.04682107     0.15660
H743        H  0.11676353  0.27627188  0.90311350     0.15370
N744        N  0.16608986  0.28697340  0.92077361     0.74470
O745        O  0.06647812  0.18547688  0.03695156    -0.38980
O746        O  0.05660607  0.21636382  0.03875996    -0.38920
O747        O  0.18338006  0.28098855  0.92037848    -0.39630
O748        O  0.16683139  0.30470536  0.89008947    -0.39690
C749        C  0.37706153  0.38155049  0.61210133    -0.11980
C750        C  0.37459152  0.40103492  0.58169063     0.05030
C751        C  0.35038980  0.39040187  0.55623438    -0.07260
C752        C  0.32990243  0.36129243  0.56226511    -0.08010
C753        C  0.33280794  0.34141801  0.59004119    -0.02560
C754        C  0.35670221  0.35191728  0.61640610     0.04260
N755        N  0.36070778  0.33329798  0.64759368     0.66760
H756        H  0.39601782  0.38940394  0.63041317     0.15660
H757        H  0.31196251  0.35373965  0.54214168     0.15370
N758        N  0.34694362  0.40787881  0.52107593     0.74470
O759        O  0.38446658  0.34068470  0.65982596    -0.38980
O760        O  0.34059367  0.31107015  0.66714255    -0.38920
O761        O  0.36625080  0.42577739  0.49490164    -0.39630
O762        O  0.32332085  0.40173987  0.51091915    -0.39690
C763        C  0.09334857  0.12229126  0.37861600    -0.11980
C764        C  0.09337822  0.09862212  0.39953880     0.05030
C765        C  0.11639842  0.10381511  0.42449187    -0.07260
C766        C  0.13736139  0.13174081  0.43081283    -0.08010
C767        C  0.13692575  0.15560381  0.41264224    -0.02560
C768        C  0.11436610  0.15059204  0.38584077     0.04260
N769        N  0.11152779  0.17322157  0.36759222     0.66760
H770        H  0.07505756  0.11843260  0.36126441     0.15660
H771        H  0.15411404  0.13457329  0.45180498     0.15370
N772        N  0.11735786  0.08086809  0.44822415     0.74470
O773        O  0.10116165  0.17261890  0.32935406    -0.38980
O774        O  0.11401215  0.19034242  0.39256754    -0.38920
O775        O  0.10880428  0.05880341  0.43006363    -0.39630
O776        O  0.12862896  0.08345061  0.48607237    -0.39690
C777        C  0.34702623  0.99489609  0.45224951    -0.11980
C778        C  0.33994691  0.49987146  0.51143924     0.05030
C779        C  0.35859252  0.49715477  0.53940016    -0.07260
C780        C  0.38157258  0.50175763  0.52088120    -0.08010
C781        C  0.39305006  0.01052110  0.46835285    -0.02560
C782        C  0.37225318  0.00413124  0.43732794     0.04260
N783        N  0.37645239  0.00770342  0.39027122     0.66760
H784        H  0.33155779  0.98990359  0.42671996     0.15660
H785        H  0.39526363  0.49902481  0.54329732     0.15370
N786        N  0.35416247  0.48863865  0.58637975     0.74470
O787        O  0.36177882  0.98700952  0.36787767    -0.38980
O788        O  0.39128017  0.03241532  0.37017190    -0.38920
O789        O  0.33374504  0.46438747  0.60003390    -0.39630
O790        O  0.37818992  0.01343203  0.60076698    -0.39690
C791        C  0.11531043  0.48387138  0.45792865    -0.11980
C792        C  0.13891943  0.50468047  0.47823970     0.05030
C793        C  0.13499253  0.01966799  0.51154707    -0.07260
C794        C  0.10970543  0.01433408  0.51993979    -0.08010
C795        C  0.08632705  0.99368386  0.49914524    -0.02560
C796        C  0.08983557  0.47775782  0.46803230     0.04260
N797        N  0.06578675  0.45428349  0.45018585     0.66760
H798        H  0.11642990  0.47076964  0.43696540     0.15660
H799        H  0.10855892  0.02730442  0.54115494     0.15370
N800        N  0.15846683  0.04156840  0.53266280     0.74470
O801        O  0.06592512  0.44857265  0.41153086    -0.38980
O802        O  0.04622011  0.43639344  0.47588041    -0.38920
O803        O  0.16978777  0.06679101  0.51451369    -0.39630
O804        O  0.16185029  0.03726343  0.57391392    -0.39690
C805        C  0.46963352  0.35023586  0.45791312    -0.11980
C806        C  0.47230352  0.34568391  0.50458505     0.05030
C807        C  0.48132645  0.36865682  0.52933402    -0.07260
C808        C  0.48750887  0.39494185  0.50696206    -0.08010
C809        C  0.48533102  0.39977102  0.46030106    -0.02560
C810        C  0.47637125  0.37686517  0.43531144     0.04260
N811        N  0.97574978  0.38022226  0.38788945     0.66760
H812        H  0.46371660  0.33319969  0.43845341     0.15660
H813        H  0.49374992  0.41187179  0.52678040     0.15370
N814        N  0.48321879  0.36560063  0.57728873     0.74470
O815        O  0.96561699  0.35908468  0.36639138    -0.38980
O816        O  0.48669588  0.40496998  0.36589052    -0.38920
O817        O  0.49006083  0.34980985  0.59766735    -0.39630
O818        O  0.47842219  0.37924552  0.59966265    -0.39690
C819        C  0.46850671  0.10056261  0.48304691    -0.11980
C820        C  0.48324835  0.10010005  0.52146415     0.05030
C821        C  0.00246645  0.12564841  0.53465260    -0.07260
C822        C  0.00878095  0.15169545  0.51045001    -0.08010
C823        C  0.49575880  0.15311231  0.47247470    -0.02560
C824        C  0.47469194  0.12634134  0.45813205     0.04260
N825        N  0.45985068  0.12491258  0.41743081     0.66760
H826        H  0.45336434  0.08062691  0.47024121     0.15660
H827        H  0.02398640  0.17146976  0.52361468     0.15370
N828        N  0.01759547  0.12647414  0.57465073     0.74470
O829        O  0.43567968  0.10383838  0.41299641    -0.38980
O830        O  0.47174615  0.14310406  0.38414581    -0.38920
O831        O  0.04183270  0.14741458  0.57906921    -0.39630
O832        O  0.00611346  0.10746862  0.60717065    -0.39690
C833        C  0.45309090  0.47847892  0.76891897    -0.11980
C834        C  0.47380128  0.47645806  0.79073165     0.05030
C835        C  0.99382707  0.47698699  0.76634059    -0.07260
C836        C  0.99246420  0.48034934  0.71990599    -0.08010
C837        C  0.47137531  0.48395644  0.69626535    -0.02560
C838        C  0.45165293  0.48231001  0.72215475     0.04260
N839        N  0.43067935  0.48541992  0.70223578     0.66760
H840        H  0.43878479  0.47869401  0.78849832     0.15660
H841        H  0.00777373  0.48104521  0.70171356     0.15370
N842        N  0.01621952  0.47650844  0.78693825     0.74470
O843        O  0.40615610  0.46690897  0.71317919    -0.38980
O844        O  0.43788507  0.00905866  0.68320815    -0.38920
O845        O  0.01219060  0.45853915  0.81989603    -0.39630
O846        O  0.03806076  0.99117992  0.76581126    -0.39690
C847        C  0.48549730  0.01699516  0.20705971    -0.11980
C848        C  0.50880614  0.02115444  0.19058691     0.05030
C849        C  0.02827153  0.02127384  0.21922042    -0.07260
C850        C  0.02340295  0.01643088  0.26510871    -0.08010
C851        C  0.99915320  0.01085333  0.28151013    -0.02560
C852        C  0.48039199  0.01105170  0.25247246     0.04260
N853        N  0.45405361  0.00207389  0.26696308     0.66760
H854        H  0.46985255  0.01561397  0.18419740     0.15660
H855        H  0.03861235  0.01700151  0.28806670     0.15370
N856        N  0.05284782  0.02598481  0.20310826     0.74470
O857        O  0.44475781  0.01690204  0.25396605    -0.38980
O858        O  0.43476001  0.47713624  0.28071608    -0.38920
O859        O  0.06263005  0.03992257  0.16563760    -0.39630
O860        O  0.06593622  0.01785999  0.22757943    -0.39690
C861        C  0.36630613  0.39366791  0.95317566    -0.11980
C862        C  0.38921970  0.39763800  0.97755982     0.05030
C863        C  0.38501301  0.38645706  0.02338938    -0.07260
C864        C  0.35879453  0.37171753  0.04224067    -0.08010
C865        C  0.33565865  0.36659412  0.01757047    -0.02560
C866        C  0.33984413  0.37849897  0.97198835     0.04260
N867        N  0.31787984  0.37512373  0.94354908     0.66760
H868        H  0.36924636  0.40330809  0.91890434     0.15660
H869        H  0.35610840  0.36251169  0.07675579     0.15370
N870        N  0.40665928  0.38923676  0.05189652     0.74470
O871        O  0.30006595  0.37746435  0.95793758    -0.38980
O872        O  0.31860322  0.37428420  0.90229448    -0.38920
O873        O  0.40658409  0.39165169  0.09267361    -0.39630
O874        O  0.42166010  0.38244130  0.03944161    -0.39690
C875        C  0.15181569  0.12084748  0.00753222    -0.11980
C876        C  0.15300229  0.14203510  0.97691965     0.05030
C877        C  0.12923242  0.14287429  0.97139112    -0.07260
C878        C  0.10673057  0.12460723  0.99922045    -0.08010
C879        C  0.10525760  0.10306870  0.02879586    -0.02560
C880        C  0.12823801  0.10108204  0.03274905     0.04260
N881        N  0.12753045  0.07820456  0.06021325     0.66760
H882        H  0.16950851  0.11986871  0.01257426     0.15660
H883        H  0.08883222  0.12522210  0.99384985     0.15370
N884        N  0.12701518  0.16177438  0.93767415     0.74470
O885        O  0.13708780  0.06596973  0.04576439    -0.38980
O886        O  0.11760315  0.07026168  0.09892662    -0.38920
O887        O  0.13395013  0.16434625  0.89811839    -0.39630
O888        O  0.11284333  0.17085702  0.94504224    -0.39690
C889        C  0.41786753  0.05851145  0.04173051    -0.11980
C890        C  0.41779797  0.03390137  0.05550785     0.05030
C891        C  0.39267151  0.50966469  0.07261073    -0.07260
C892        C  0.36846838  0.50923139  0.07025405    -0.08010
C893        C  0.36760090  0.03280644  0.05418201    -0.02560
C894        C  0.39366102  0.05867271  0.04228243     0.04260
N895        N  0.39638503  0.08522283  0.02974915     0.66760
H896        H  0.43654313  0.07744621  0.02801941     0.15660
H897        H  0.34955171  0.48957436  0.08146291     0.15370
N898        N  0.39116262  0.48447972  0.09208141     0.74470
O899        O  0.41884092  0.10835349  0.03503598    -0.38980
O900        O  0.37660647  0.08598926  0.01373079    -0.38920
O901        O  0.41089292  0.48651424  0.11467072    -0.39630
O902        O  0.36936126  0.46022783  0.08994340    -0.39690
C903        C  0.08894564  0.46997558  0.97141244    -0.11980
C904        C  0.07671797  0.47143906  0.93026372     0.05030
C905        C  0.09125251  0.47551842  0.89139467    -0.07260
C906        C  0.11621280  0.47682799  0.89554076    -0.08010
C907        C  0.12857992  0.47629345  0.93729268    -0.02560
C908        C  0.11427574  0.47279008  0.97564587     0.04260
N909        N  0.12563567  0.47317483  0.01959769     0.66760
H910        H  0.07929336  0.46838565  0.00137607     0.15660
H911        H  0.12723562  0.48067403  0.86574230     0.15370
N912        N  0.08228505  0.48033435  0.84764825     0.74470
O913        O  0.12092728  0.48295205  0.04970948    -0.38980
O914        O  0.13881806  0.46204882  0.02949057    -0.38920
O915        O  0.06961350  0.99197850  0.84075928    -0.39630
O916        O  0.08875432  0.47466668  0.81401874    -0.39690
C917        C  0.46682946  0.36570245  0.01578961    -0.11980
C918        C  0.99150816  0.38932028  0.02887839     0.05030
C919        C  0.01642218  0.39361217  0.01883099    -0.07260
C920        C  0.01600637  0.37634769  0.99033533    -0.08010
C921        C  0.49134121  0.35355544  0.97576382    -0.02560
C922        C  0.46645671  0.34856200  0.98729753     0.04260
N923        N  0.44085288  0.32602377  0.97061815     0.66760
H924        H  0.44789181  0.36295731  0.02272595     0.15660
H925        H  0.03478159  0.37879047  0.98307355     0.15370
N926        N  0.04196266  0.41471585  0.03791559     0.74470
O927        O  0.41866094  0.31814953  0.98791813    -0.38980
O928        O  0.44011947  0.31623336  0.93539056    -0.38920
O929        O  0.04271102  0.42956632  0.06561492    -0.39630
O930        O  0.06327629  0.41568064  0.03226893    -0.39690
C931        C  0.01413204  0.15284930  0.94717051    -0.11980
C932        C  0.50417101  0.14921760  0.99010572     0.05030
C933        C  0.50212389  0.12827236  0.02300437    -0.07260
C934        C  0.50958487  0.11098039  0.01132396    -0.08010
C935        C  0.51688570  0.11290591  0.96732444    -0.02560
C936        C  0.02018667  0.13466325  0.93492796     0.04260
N937        N  0.03004453  0.13880314  0.89072830     0.66760
H938        H  0.01689056  0.16988095  0.92257281     0.15660
H939        H  0.50795930  0.09457467  0.03603441     0.15370
N940        N  0.49105502  0.12290684  0.06666385     0.74470
O941        O  0.02406194  0.15098161  0.85867681    -0.38980
O942        O  0.04696823  0.13301657  0.88432137    -0.38920
O943        O  0.47148051  0.12502931  0.07164362    -0.39630
O944        O  0.49778222  0.11164454  0.09908061    -0.39690
O945        O  0.07511422  0.55473775  0.03994156    -0.75000
O946        O  0.05648247  0.57937400  0.04234289    -0.53910
C947        C  0.07742485  0.57788790  0.04018613     0.78730
O948        O  0.98466045  0.50445075  0.84802683    -0.59600
O949        O  0.97808885  0.96143993  0.86635049    -0.52630
C950        C  0.97868321  0.98075781  0.83801457     0.70740
O951        O  0.00496446  0.57621073  0.92387125    -0.74160
O952        O  0.53104281  0.58313044  0.98376383    -0.54720
C953        C  0.51862448  0.59047975  0.95596775     0.76750
O954        O  0.06634571  0.50408023  0.93895960    -0.59300
O955        O  0.02875860  0.95947362  0.93223932    -0.52420
C956        C  0.05538069  0.97842074  0.93128978     0.73340
Zr957      Zr  0.05140513  0.52379751  0.98444064     2.54710
O958        O  0.08745834  0.56592902  0.94028989    -0.79870
O959        O  0.08096724  0.51060755  0.02249629    -0.93290
Zr960      Zr  0.99732137  0.53139401  0.91109555     2.64680
O961        O  0.03575049  0.56564651  0.86231971    -0.98240
O962        O  0.46583601  0.53784392  0.86281757    -0.80300
O963        O  0.02927622  0.54755320  0.96998754    -0.83660
O964        O  0.01992483  0.50774406  0.92424937    -2.18370
O965        O  0.49507324  0.92735377  0.05844497    -0.67050
O966        O  0.98585650  0.92066411  0.98375198    -0.51610
C967        C  0.99080604  0.91422778  0.02372070     0.71720
O968        O  0.42891156  0.00729240  0.02219012    -0.59960
O969        O  0.46603876  0.54578895  0.04992766    -0.51930
C970        C  0.43965249  0.52978015  0.04125695     0.73520
O971        O  0.42155000  0.94462477  0.94730859    -0.71350
O972        O  0.43701223  0.91735930  0.95643884    -0.50030
C973        C  0.41709887  0.92030236  0.95843182     0.74910
O974        O  0.50292822  0.99437037  0.13515933    -0.66680
O975        O  0.51024545  0.53857147  0.11504903    -0.53880
C976        C  0.50682770  0.51803315  0.14338845     0.73290
Zr977      Zr  0.49631847  0.96899497  0.07238812     2.77540
O978        O  0.46309423  0.93135531  0.12597100    -0.97430
O979        O  0.03436164  0.97300433  0.11518640    -0.78250
Zr980      Zr  0.44170123  0.97716485  0.00213646     2.70070
O981        O  0.41813698  0.94527476  0.06891575    -0.79500
O982        O  0.39424899  0.96151215  0.99053244    -0.98580
Zr983      Zr  0.50634939  0.54199476  0.03569851     2.21500
Zr984      Zr  0.98616471  0.95919874  0.94645922     2.11130
O985        O  0.46377790  0.95296092  0.01533949    -2.47270
O986        O  0.47404641  0.99309875  0.06020818    -0.79290
O987        O  0.01867624  0.97586966  0.00513037    -0.71490
O988        O  0.47388609  0.52560096  0.97599178    -2.32440
O989        O  0.02800420  0.51678688  0.05078965    -2.28650
O990        O  0.46335452  0.98312639  0.93442703    -0.73250
H991        H  0.02884109  0.50971520  0.89746128     0.78750
H992        H  0.46573440  0.53617004  0.96929951     0.79840
H993        H  0.45082289  0.93327753  0.02639078     0.82060
H994        H  0.03884276  0.52214595  0.07763712     0.79670
H995        H  0.44759808  0.52256372  0.87499562     0.42710
H996        H  0.39115657  0.96175399  0.95793025     0.41680
H997        H  0.43186515  0.95077930  0.09312127     0.41350
H998        H  0.45886352  0.91351669  0.11645423     0.39290
H999        H  0.04606080  0.97352918  0.09320789     0.42420
H1000       H  0.08385234  0.51615813  0.05294933     0.37200
H1001       H  0.08082220  0.57840746  0.93356648     0.43320
H1002       H  0.03923919  0.55403991  0.84661987     0.39730
H1003       H  0.47365651  0.93351387  0.15392440     0.44650
H1004       H  0.09888099  0.52373245  0.00771991     0.43380
H1005       H  0.02817667  0.57334019  0.83906264     0.43510
H1006       H  0.38319925  0.94118192  0.00250542     0.43870
O1007       O  0.46270271  0.92142293  0.44200609    -0.75000
O1008       O  0.00805152  0.95071625  0.43696630    -0.53910
C1009       C  0.98584659  0.92520490  0.44309097     0.78730
O1010       O  0.41511670  0.51041663  0.41855304    -0.59600
O1011       O  0.42448654  0.50553607  0.48696889    -0.52630
C1012       C  0.40954672  0.50865754  0.45878657     0.70740
O1013       O  0.47455751  0.50959568  0.34391705    -0.74160
O1014       O  0.01166797  0.50144844  0.35605211    -0.54720
C1015       C  0.99663663  0.50727483  0.33091795     0.76750
O1016       O  0.41336009  0.92169394  0.53896979    -0.59300
O1017       O  0.40933657  0.95407046  0.56694340    -0.52420
C1018       C  0.40115942  0.92826104  0.56186622     0.73340
Zr1019     Zr  0.44969981  0.94281385  0.48771981     2.54710
O1020       O  0.41003216  0.91960267  0.43907570    -0.79870
O1021       O  0.43646956  0.89760190  0.53006061    -0.93290
Zr1022     Zr  0.45348970  0.50584596  0.41260963     2.64680
O1023       O  0.41698246  0.97171942  0.37882899    -0.98240
O1024       O  0.46075769  0.54786027  0.36661271    -0.80300
O1025       O  0.46966577  0.97414989  0.42164840    -0.83660
O1026       O  0.43713761  0.97509234  0.47909719    -2.18370
O1027       O  0.49159658  0.98645401  0.63024810    -0.67050
O1028       O  0.45868994  0.99539094  0.62465511    -0.51610
C1029       C  0.47389345  0.98868401  0.64746871     0.71720
O1030       O  0.05779996  0.58036407  0.44109952    -0.59960
O1031       O  0.05944095  0.54755234  0.40937759    -0.51930
C1032       C  0.06866722  0.57340569  0.41606645     0.73520
O1033       O  0.50330299  0.57609810  0.53749017    -0.71350
O1034       O  0.45770042  0.54736545  0.54131143    -0.50030
C1035       C  0.48022935  0.57267256  0.53582595     0.74910
O1036       O  0.05358001  0.49305082  0.53538337    -0.66680
O1037       O  0.05472740  0.49649707  0.45928931    -0.53880
C1038       C  0.06358047  0.49390940  0.49816667     0.73290
Zr1039     Zr  0.01538814  0.49400919  0.56161445     2.77540
O1040       O  0.05365087  0.52909757  0.60371736    -0.97430
O1041       O  0.01296218  0.95619963  0.60833816    -0.78250
Zr1042     Zr  0.02076357  0.55823027  0.48994609     2.70070
O1043       O  0.06043573  0.58668002  0.53605254    -0.79500
O1044       O  0.02479066  0.59923531  0.44572089    -0.98580
Zr1045     Zr  0.01805402  0.49980141  0.43530446     2.21500
Zr1046     Zr  0.45064293  0.49944431  0.54371344     2.11130
O1047       O  0.49911985  0.52615065  0.55266932    -2.47270
O1048       O  0.03498508  0.52686878  0.49756312    -0.79290
O1049       O  0.46663081  0.96809607  0.55106448    -0.71490
O1050       O  0.00619038  0.53355201  0.42569663    -2.32440
O1051       O  0.99669762  0.96728981  0.50084625    -2.28650
O1052       O  0.46896756  0.53132675  0.47687608    -0.73250
H1053       H  0.41747881  0.96382408  0.47593020     0.78750
H1054       H  0.01480608  0.54685624  0.39940753     0.79840
H1055       H  0.50485051  0.53639367  0.57846455     0.82060
H1056       H  0.00226791  0.95449153  0.50865955     0.79670
H1057       H  0.48079870  0.56122312  0.36384112     0.42710
H1058       H  0.49835531  0.58945492  0.43461264     0.41680
H1059       H  0.07194104  0.57947454  0.53412526     0.41350
H1060       H  0.04534006  0.53327261  0.62565359     0.39290
H1061       H  0.49520567  0.93746541  0.59999177     0.42420
H1062       H  0.45202540  0.90212972  0.55028846     0.37200
H1063       H  0.41631475  0.91578400  0.41348553     0.43320
H1064       H  0.42197595  0.96004145  0.36712180     0.39730
H1065       H  0.06032137  0.51841126  0.62178384     0.44650
H1066       H  0.43612029  0.88582137  0.50886855     0.43380
H1067       H  0.41434268  0.98195841  0.35199538     0.43510
H1068       H  0.03287848  0.61415818  0.46604866     0.43870
O1069       O  0.07449757  0.77168336  0.95079536    -0.75000
O1070       O  0.04485130  0.72568581  0.93919276    -0.53910
C1071       C  0.06922573  0.74729561  0.94710519     0.78730
O1072       O  0.99627750  0.72972956  0.13163948    -0.59600
O1073       O  0.99054856  0.76613144  0.12057244    -0.52630
C1074       C  0.99586806  0.74975760  0.14564882     0.70740
O1075       O  0.50068962  0.67870645  0.03336611    -0.74160
O1076       O  0.48575847  0.67381890  0.96204464    -0.54720
C1077       C  0.49591404  0.66786733  0.99652599     0.76750
O1078       O  0.06274212  0.80978330  0.05402638    -0.59300
O1079       O  0.03063556  0.81896905  0.05826382    -0.52420
C1080       C  0.05531849  0.82570207  0.06147537     0.73340
Zr1081     Zr  0.04980928  0.78216682  0.99337893     2.54710
O1082       O  0.08853380  0.78515957  0.03285344    -0.79870
O1083       O  0.07964011  0.82943711  0.95411469    -0.93290
Zr1084     Zr  0.99018142  0.70990136  0.06033333     2.64680
O1085       O  0.01475615  0.69558094  0.11250013    -0.98240
O1086       O  0.44868512  0.66856448  0.09434301    -0.80300
O1087       O  0.02287614  0.73206893  0.00146756    -0.83660
O1088       O  0.01828835  0.75977537  0.05313110    -2.18370
O1089       O  0.49544118  0.82352953  0.93650862    -0.67050
O1090       O  0.98810178  0.81493694  0.01183225    -0.51610
C1091       C  0.49149965  0.82899854  0.97368027     0.71720
O1092       O  0.44580121  0.70544787  0.90664030    -0.59960
O1093       O  0.46116808  0.68018916  0.89776764    -0.51930
C1094       C  0.44074682  0.68164200  0.89970788     0.73520
O1095       O  0.41225208  0.72378108  0.02021810    -0.71350
O1096       O  0.44227327  0.76716274  0.04392358    -0.50030
C1097       C  0.41792724  0.74679059  0.03273139     0.74910
O1098       O  0.48853266  0.76458821  0.84475843    -0.66680
O1099       O  0.49730984  0.73035097  0.85147251    -0.53880
C1100       C  0.49040570  0.74618048  0.82892915     0.73290
Zr1101     Zr  0.49713936  0.78573521  0.91325984     2.77540
O1102       O  0.46685881  0.79259025  0.86260081    -0.97430
O1103       O  0.03719736  0.82553514  0.87315475    -0.78250
Zr1104     Zr  0.43746266  0.71401868  0.97755418     2.70070
O1105       O  0.40426458  0.72033937  0.93557985    -0.79500
O1106       O  0.40295580  0.66473996  0.00465349    -0.98580
Zr1107     Zr  0.49953460  0.71985254  0.93209803     2.21500
Zr1108     Zr  0.98814812  0.77500955  0.04052878     2.11130
O1109       O  0.46459186  0.76383708  0.97164717    -2.47270
O1110       O  0.47027198  0.73611861  0.92044075    -0.79290
O1111       O  0.02088837  0.79816377  0.98146808    -0.71490
O1112       O  0.46591300  0.69746372  0.99199754    -2.32440
O1113       O  0.02715782  0.77043362  0.92381334    -2.28650
O1114       O  0.45991913  0.72476463  0.04769286    -0.73250
H1115       H  0.02855203  0.76517636  0.08041499     0.78750
H1116       H  0.45393702  0.67701032  0.99344833     0.79840
H1117       H  0.45310993  0.77080746  0.96587035     0.82060
H1118       H  0.03971976  0.77805340  0.89928129     0.79670
H1119       H  0.44846614  0.65221112  0.08711203     0.42710
H1120       H  0.41234169  0.65862894  0.02677204     0.41680
H1121       H  0.41455127  0.73425617  0.90963264     0.41350
H1122       H  0.45229283  0.78899010  0.88177333     0.39290
H1123       H  0.04531854  0.84085473  0.89273841     0.42420
H1124       H  0.08357713  0.82614602  0.92539534     0.37200
H1125       H  0.08057301  0.77161425  0.06015057     0.43320
H1126       H  0.03283955  0.71335125  0.11602868     0.39730
H1127       H  0.47739443  0.81324954  0.85274225     0.44650
H1128       H  0.09709818  0.83774943  0.97077126     0.43380
H1129       H  0.00562707  0.69016702  0.14156699     0.43510
H1130       H  0.39060951  0.66584133  0.02285759     0.43870
O1131       O  0.05550004  0.75284749  0.55671984    -0.75000
O1132       O  0.05961048  0.75224394  0.48274377    -0.53910
C1133       C  0.06808811  0.75411973  0.52289069     0.78730
O1134       O  0.42149424  0.67509246  0.54525247    -0.59600
O1135       O  0.40432135  0.70014318  0.52584094    -0.52630
C1136       C  0.40167317  0.67595970  0.53033071     0.70740
O1137       O  0.47348514  0.67596788  0.44581891    -0.74160
O1138       O  0.01853982  0.70550890  0.45572411    -0.54720
C1139       C  0.99671957  0.67970812  0.45570083     0.76750
O1140       O  0.48878052  0.74444482  0.63169461    -0.59300
O1141       O  0.45043294  0.74434355  0.61547449    -0.52420
C1142       C  0.46814598  0.74388800  0.64284883     0.73340
Zr1143     Zr  0.01222521  0.74690170  0.56869977     2.54710
O1144       O  0.00603716  0.70507380  0.61351563    -0.79870
O1145       O  0.04509621  0.77878460  0.62085547    -0.93290
Zr1146     Zr  0.45602721  0.69226178  0.49192344     2.64680
O1147       O  0.45445662  0.65253465  0.53600635    -0.98240
O1148       O  0.41856277  0.66016552  0.44531524    -0.80300
O1149       O  0.00278865  0.72066868  0.50850386    -0.83660
O1150       O  0.46547082  0.71830455  0.55356715    -2.18370
O1151       O  0.49824469  0.82686470  0.52842882    -0.67050
O1152       O  0.45284140  0.79454221  0.52723151    -0.51610
C1153       C  0.47408517  0.82067324  0.52306163     0.71720
O1154       O  0.48706432  0.76008273  0.34587805    -0.59960
O1155       O  0.02391918  0.75778968  0.36237021    -0.51930
C1156       C  0.00755286  0.76048258  0.33457522     0.73520
O1157       O  0.42005645  0.75146208  0.42289189    -0.71350
O1158       O  0.41514214  0.75206200  0.49684952    -0.50030
C1159       C  0.40762635  0.75113675  0.45611448     0.74910
O1160       O  0.05125111  0.82624444  0.43147127    -0.66680
O1161       O  0.06961721  0.80180246  0.44249940    -0.53880
C1162       C  0.07185660  0.82555855  0.44240312     0.73290
Zr1163     Zr  0.01855798  0.81021734  0.48832925     2.77540
O1164       O  0.02819845  0.85442524  0.44693991    -0.97430
O1165       O  0.05631311  0.83792173  0.53814648    -0.78250
Zr1166     Zr  0.46223946  0.75527674  0.40949478     2.70070
O1167       O  0.46716641  0.79640028  0.36432218    -0.79500
O1168       O  0.43023526  0.72395713  0.35593613    -0.98580
Zr1169     Zr  0.02487659  0.75382176  0.44445164     2.21500
Zr1170     Zr  0.44895311  0.74807344  0.53343550     2.11130
O1171       O  0.47205164  0.78144174  0.46913861    -2.47270
O1172       O  0.00929501  0.78447952  0.42652004    -0.79290
O1173       O  0.49647258  0.77723260  0.55112072    -0.71490
O1174       O  0.47740009  0.72489952  0.42734616    -2.32440
O1175       O  0.03399882  0.78023863  0.50657569    -2.28650
O1176       O  0.43999606  0.72175874  0.47210159    -0.73250
H1177       H  0.45795569  0.70664478  0.58162267     0.78750
H1178       H  0.47423905  0.71500894  0.40192095     0.79840
H1179       H  0.46555154  0.79317498  0.45823147     0.82060
H1180       H  0.05294271  0.79173043  0.51515538     0.79670
H1181       H  0.42536955  0.66758053  0.41438134     0.42710
H1182       H  0.42035602  0.70473076  0.37262469     0.41680
H1183       H  0.48490145  0.81278887  0.37360972     0.41350
H1184       H  0.51181400  0.84887786  0.42737131     0.39290
H1185       H  0.04804082  0.83134541  0.56817741     0.42420
H1186       H  0.06104005  0.79374073  0.60240379     0.37200
H1187       H  0.00743655  0.69450469  0.59201009     0.43320
H1188       H  0.45115911  0.65347396  0.56696729     0.39730
H1189       H  0.02825615  0.86568707  0.46882222     0.44650
H1190       H  0.05136688  0.76775226  0.63899979     0.43380
H1191       H  0.43730244  0.63541725  0.52680062     0.43510
H1192       H  0.41652277  0.72862123  0.35049071     0.43870
O1193       O  0.17494657  0.93679808  0.05841435    -0.75000
O1194       O  0.16722020  0.92665120  0.98658210    -0.53910
C1195       C  0.15964577  0.92236301  0.02695201     0.78730
O1196       O  0.24720092  0.57527591  0.02357178    -0.59600
O1197       O  0.28612379  0.58307166  0.05785215    -0.52630
C1198       C  0.26791291  0.58881967  0.04902584     0.70740
O1199       O  0.17493631  0.50747655  0.95900921    -0.74160
O1200       O  0.16457659  0.96760227  0.93093393    -0.54720
C1201       C  0.15794804  0.98429815  0.94116616     0.76750
O1202       O  0.24359046  0.00127809  0.13330682    -0.59300
O1203       O  0.28720331  0.54124593  0.11690214    -0.52420
C1204       C  0.26716284  0.52376721  0.14390628     0.73340
Zr1205     Zr  0.22188199  0.97538151  0.06977027     2.54710
O1206       O  0.19010626  0.97134341  0.12089749    -0.79870
O1207       O  0.22336539  0.93805942  0.11594824    -0.93290
Zr1208     Zr  0.22279964  0.53440483  0.98308276     2.64680
O1209       O  0.19060358  0.53713920  0.02301579    -0.98240
O1210       O  0.22815312  0.56981260  0.92250884    -0.80300
O1211       O  0.20190960  0.98563431  0.00604186    -0.83660
O1212       O  0.24274823  0.52447514  0.04773590    -2.18370
O1213       O  0.32166291  0.50408351  0.02695740    -0.67050
O1214       O  0.33250086  0.54460068  0.05247264    -0.51610
C1215       C  0.33898498  0.52737825  0.04404470     0.71720
O1216       O  0.24823512  0.50825324  0.84635354    -0.59960
O1217       O  0.20687590  0.96868937  0.86573032    -0.51930
C1218       C  0.22588381  0.98601899  0.83733765     0.73520
O1219       O  0.31845997  0.57374821  0.91735606    -0.71350
O1220       O  0.32763559  0.58484901  0.98935744    -0.50030
C1221       C  0.33375324  0.58876096  0.94788824     0.74910
O1222       O  0.25456755  0.94204616  0.94871432    -0.66680
O1223       O  0.21155229  0.92925194  0.92742901    -0.53880
C1224       C  0.23173428  0.92643210  0.92930369     0.73290
Zr1225     Zr  0.27421715  0.97744175  0.99889946     2.77540
O1226       O  0.30412977  0.96999093  0.96172987    -0.97430
O1227       O  0.26562115  0.93993247  0.05787089    -0.78250
Zr1228     Zr  0.27292799  0.53399062  0.91006343     2.70070
O1229       O  0.30315213  0.53355752  0.86129737    -0.79500
O1230       O  0.27249873  0.57140703  0.86208252    -0.98580
Zr1231     Zr  0.20629754  0.96609559  0.94631165     2.21500
Zr1232     Zr  0.29031802  0.54559388  0.03536520     2.11130
O1233       O  0.29426691  0.52570326  0.97465595    -2.47270
O1234       O  0.25325368  0.98591674  0.93392338    -0.79290
O1235       O  0.26914171  0.99589290  0.05942416    -0.71490
O1236       O  0.22663040  0.51512509  0.92262680    -2.32440
O1237       O  0.22673648  0.95542997  0.01131221    -2.28650
O1238       O  0.26964743  0.55505140  0.96929279    -0.73250
H1239       H  0.24041908  0.53222479  0.07172175     0.78750
H1240       H  0.21786474  0.51807404  0.89617102     0.79840
H1241       H  0.31306902  0.53377626  0.96806073     0.82060
H1242       H  0.21756492  0.93511262  0.01858596     0.79670
H1243       H  0.21159614  0.55947499  0.90391424     0.42710
H1244       H  0.28033902  0.58719004  0.88067287     0.41680
H1245       H  0.30719658  0.52023953  0.87803176     0.41350
H1246       H  0.31940798  0.48907528  0.94930373     0.39290
H1247       H  0.27836635  0.95006552  0.08207732     0.42420
H1248       H  0.20945777  0.92041028  0.10283181     0.37200
H1249       H  0.18455481  0.98372482  0.10551111     0.43320
H1250       H  0.19519272  0.53541222  0.05493818     0.39730
H1251       H  0.31228266  0.96337778  0.98570475     0.44650
H1252       H  0.21542156  0.93622940  0.14468839     0.43380
H1253       H  0.19582117  0.55692878  0.01586973     0.43510
H1254       H  0.28666462  0.57817028  0.83949362     0.43870
O1255       O  0.25495107  0.57303117  0.53958673    -0.75000
O1256       O  0.21142651  0.53711924  0.55992633    -0.53910
C1257       C  0.23180639  0.56391100  0.55517475     0.78730
O1258       O  0.23832573  0.51404678  0.34825925    -0.59600
O1259       O  0.27887971  0.51818936  0.35952913    -0.52630
C1260       C  0.26059420  0.51840198  0.33407769     0.70740
O1261       O  0.17209384  0.00606448  0.44434539    -0.74160
O1262       O  0.16808637  0.99768336  0.52039750    -0.54720
C1263       C  0.16106912  0.00330669  0.48162060     0.76750
O1264       O  0.30405463  0.57372845  0.43853272    -0.59300
O1265       O  0.32467809  0.55189509  0.44094403    -0.52420
C1266       C  0.32554714  0.57444685  0.44463246     0.73340
Zr1267     Zr  0.27244243  0.55477230  0.49823648     2.54710
O1268       O  0.28388717  0.60178789  0.46851380    -0.79870
O1269       O  0.31084923  0.57948302  0.54848908    -0.93290
Zr1270     Zr  0.20984465  0.00501557  0.41712765     2.64680
O1271       O  0.21480446  0.54524969  0.37116801    -0.98240
O1272       O  0.17239580  0.97032984  0.37330926    -0.80300
O1273       O  0.22508257  0.52794207  0.48296462    -0.83660
O1274       O  0.26044208  0.53409566  0.43008796    -2.18370
O1275       O  0.30681876  0.99018432  0.54204493    -0.67050
O1276       O  0.30979785  0.00181163  0.46709483    -0.51610
C1277       C  0.31804340  0.99548114  0.50384046     0.71720
O1278       O  0.17814113  0.91902117  0.54577298    -0.59960
O1279       O  0.15830041  0.94175928  0.54572059    -0.51930
C1280       C  0.15667326  0.91872231  0.54157153     0.73520
O1281       O  0.22201165  0.93248034  0.41668672    -0.71350
O1282       O  0.26763779  0.96097762  0.41578009    -0.50030
C1283       C  0.24503558  0.93652533  0.41149736     0.74910
O1284       O  0.24546039  0.98387317  0.63498439    -0.66680
O1285       O  0.20655427  0.98326715  0.62385750    -0.53880
C1286       C  0.22494554  0.98294033  0.64880925     0.73290
Zr1287     Zr  0.26637790  0.98823424  0.56481673     2.77540
O1288       O  0.25825026  0.94418070  0.60403015    -0.97430
O1289       O  0.30032956  0.51756335  0.62256988    -0.78250
Zr1290     Zr  0.20793098  0.93926293  0.48318642     2.70070
O1291       O  0.21396057  0.90121445  0.51037925    -0.79500
O1292       O  0.16647026  0.90360422  0.44745745    -0.98580
Zr1293     Zr  0.20238895  0.99036818  0.54421476     2.21500
Zr1294     Zr  0.27437898  0.00486597  0.43792360     2.11130
O1295       O  0.25511137  0.96703317  0.49750528    -2.47270
O1296       O  0.21870379  0.96017596  0.55102781    -0.79290
O1297       O  0.28849120  0.52530392  0.50825797    -0.71490
O1298       O  0.19049730  0.96812271  0.47629755    -2.32440
O1299       O  0.25156652  0.51885814  0.55930430    -2.28650
O1300       O  0.22674924  0.97604371  0.42347612    -0.73250
H1301       H  0.26642229  0.54737379  0.40324504     0.78750
H1302       H  0.17115549  0.95690340  0.47015860     0.79840
H1303       H  0.26204752  0.95533979  0.49863611     0.82060
H1304       H  0.25505086  0.52790971  0.58587507     0.79670
H1305       H  0.15583066  0.96253121  0.39101530     0.42710
H1306       H  0.16692676  0.91278119  0.41701603     0.41680
H1307       H  0.21519129  0.90112240  0.54317233     0.41350
H1308       H  0.26383138  0.93679118  0.58278239     0.39290
H1309       H  0.30978626  0.53708977  0.60701510     0.42420
H1310       H  0.30244840  0.57496870  0.57799909     0.37200
H1311       H  0.27689403  0.59972450  0.43750997     0.43320
H1312       H  0.23446760  0.56022540  0.36678297     0.39730
H1313       H  0.27241460  0.95034957  0.62764758     0.44650
H1314       H  0.31815157  0.59981928  0.54006814     0.43380
H1315       H  0.20812007  0.53854799  0.34149747     0.43510
H1316       H  0.16944754  0.88880060  0.44318749     0.43870
O1317       O  0.24860876  0.68767333  0.08881726    -0.75000
O1318       O  0.25231365  0.68055751  0.01786487    -0.53910
C1319       C  0.25223891  0.67509135  0.06048707     0.78730
O1320       O  0.16541606  0.73479890  0.02433907    -0.59600
O1321       O  0.19410071  0.78210422  0.01249479    -0.52630
C1322       C  0.16967070  0.75886146  0.01169173     0.70740
O1323       O  0.18013344  0.68793166  0.94305536    -0.74160
O1324       O  0.20300785  0.66948225  0.96945469    -0.54720
C1325       C  0.18002313  0.66674968  0.95959949     0.76750
O1326       O  0.23795010  0.75130934  0.14373144    -0.59300
O1327       O  0.23589281  0.78921085  0.11546346    -0.52420
C1328       C  0.23621668  0.77222877  0.14830667     0.73340
Zr1329     Zr  0.24143750  0.72667436  0.08771468     2.54710
O1330       O  0.20175239  0.68821522  0.13041988    -0.79870
O1331       O  0.27342999  0.73261462  0.14784351    -0.93290
Zr1332     Zr  0.19013034  0.72044935  0.99320120     2.64680
O1333       O  0.15582237  0.67938822  0.04151437    -0.98240
O1334       O  0.15926037  0.72251535  0.93761414    -0.80300
O1335       O  0.21700416  0.70370317  0.02456510    -0.83660
O1336       O  0.21350446  0.74253787  0.05751218    -2.18370
O1337       O  0.30729553  0.82071813  0.05645575    -0.67050
O1338       O  0.28572294  0.84044982  0.03122869    -0.51610
C1339       C  0.30840305  0.84243099  0.03770511     0.71720
O1340       O  0.25185068  0.75613980  0.85927066    -0.59960
O1341       O  0.25137775  0.71670912  0.88798400    -0.51930
C1342       C  0.25143681  0.73384176  0.85521382     0.73520
O1343       O  0.24086599  0.81974174  0.91806508    -0.71350
O1344       O  0.23750818  0.82716897  0.98879214    -0.50030
C1345       C  0.23665137  0.83194464  0.94641305     0.74910
O1346       O  0.32438755  0.76496804  0.00527283    -0.66680
O1347       O  0.29588227  0.72325814  0.97512273    -0.53880
C1348       C  0.31922836  0.74235671  0.99188671     0.73290
Zr1349     Zr  0.30146068  0.78780071  0.00909892     2.77540
O1350       O  0.33335281  0.82076622  0.95016866    -0.97430
O1351       O  0.34281755  0.80643823  0.05397548    -0.78250
Zr1352     Zr  0.24950282  0.78191184  0.91501689     2.70070
O1353       O  0.28702965  0.82053736  0.86874036    -0.79500
O1354       O  0.21611257  0.77459140  0.85630096    -0.98580
Zr1355     Zr  0.24964341  0.71569780  0.96907873     2.21500
Zr1356     Zr  0.24120542  0.79245844  0.03396446     2.11130
O1357       O  0.27379142  0.80358910  0.97776532    -2.47270
O1358       O  0.27776978  0.76587244  0.94474626    -0.79290
O1359       O  0.26961826  0.77643088  0.06474916    -0.71490
O1360       O  0.22263391  0.73304820  0.93812311    -2.32440
O1361       O  0.27352656  0.73886855  0.03334469    -2.28650
O1362       O  0.21761491  0.76940416  0.97038050    -0.73250
H1363       H  0.20060672  0.73830001  0.07975333     0.78750
H1364       H  0.21470612  0.72604911  0.91000550     0.79840
H1365       H  0.28479361  0.82329806  0.96567969     0.82060
H1366       H  0.28443573  0.73243925  0.04766542     0.79670
H1367       H  0.16840082  0.72717969  0.90876037     0.42710
H1368       H  0.21519119  0.79136878  0.85356211     0.41680
H1369       H  0.29734339  0.81280623  0.86164651     0.41350
H1370       H  0.32544953  0.83089645  0.93485126     0.39290
H1371       H  0.33673075  0.79412293  0.08277070     0.42420
H1372       H  0.28843734  0.73375607  0.13357887     0.37200
H1373       H  0.19558866  0.67111207  0.11603908     0.43320
H1374       H  0.15400375  0.68720945  0.06701157     0.39730
H1375       H  0.34974417  0.83508644  0.96583154     0.44650
H1376       H  0.26401019  0.71407917  0.16669976     0.43380
H1377       H  0.16476113  0.66980026  0.05449822     0.43510
H1378       H  0.22493876  0.77687255  0.82828750     0.43870
O1379       O  0.18349027  0.68359083  0.42824173    -0.75000
O1380       O  0.16310295  0.70671760  0.42407201    -0.53910
C1381       C  0.16247420  0.68400892  0.42116407     0.78730
O1382       O  0.22696286  0.73348391  0.64652591    -0.59600
O1383       O  0.26582741  0.73540171  0.64061642    -0.52630
C1384       C  0.24709317  0.73268653  0.66388156     0.70740
O1385       O  0.16887953  0.74181700  0.55888111    -0.74160
O1386       O  0.16552904  0.74841102  0.48302084    -0.54720
C1387       C  0.15772820  0.74542857  0.52318313     0.76750
O1388       O  0.22303249  0.66634936  0.54057171    -0.59300
O1389       O  0.26471448  0.69611088  0.57161540    -0.52420
C1390       C  0.24450141  0.67108528  0.56143355     0.73340
Zr1391     Zr  0.21023283  0.69408598  0.49436170     2.54710
O1392       O  0.16657856  0.65677447  0.52883682    -0.79870
O1393       O  0.21520147  0.66213981  0.45768906    -0.93290
Zr1394     Zr  0.20672947  0.73831081  0.57523881     2.64680
O1395       O  0.16880303  0.69397330  0.61188202    -0.98240
O1396       O  0.20707474  0.76844246  0.62457837    -0.80300
O1397       O  0.18996702  0.71776330  0.50698154    -0.83660
O1398       O  0.22523086  0.71279795  0.56355856    -2.18370
O1399       O  0.30617021  0.75681720  0.45118927    -0.67050
O1400       O  0.31116208  0.74942464  0.52649303    -0.51610
C1401       C  0.31769721  0.75249058  0.48568606     0.71720
O1402       O  0.24842652  0.83061366  0.46537715    -0.59960
O1403       O  0.21230029  0.80267591  0.42174733    -0.51930
C1404       C  0.23082593  0.82725439  0.43510243     0.73520
O1405       O  0.28595413  0.80749965  0.58435164    -0.71350
O1406       O  0.31245831  0.79205329  0.58401166    -0.50030
C1407       C  0.30963588  0.81242558  0.58773161     0.74910
O1408       O  0.25342767  0.77252855  0.36026729    -0.66680
O1409       O  0.21077591  0.76265320  0.36337449    -0.53880
C1410       C  0.23205731  0.76996697  0.34131533     0.73290
Zr1411     Zr  0.27094730  0.76398044  0.43170013     2.77540
O1412       O  0.31047451  0.80893175  0.39997524    -0.97430
O1413       O  0.27240558  0.73722817  0.37783159    -0.78250
Zr1414     Zr  0.26624959  0.80726261  0.51170655     2.70070
O1415       O  0.30879910  0.84243641  0.47204222    -0.79500
O1416       O  0.26546839  0.84279483  0.54631489    -0.98580
Zr1417     Zr  0.20288673  0.75418012  0.44509456     2.21500
Zr1418     Zr  0.27356834  0.74534339  0.55995300     2.11130
O1419       O  0.28709342  0.78363583  0.50003985    -2.47270
O1420       O  0.25098245  0.78785162  0.44336649    -0.79290
O1421       O  0.25788923  0.72644953  0.49014225    -0.71490
O1422       O  0.21871683  0.77462698  0.51447800    -2.32680
O1423       O  0.22400462  0.73066790  0.43376858    -2.28650
O1424       O  0.25395552  0.77066711  0.57119807    -0.73250
H1425       H  0.22002218  0.69781948  0.58784050     0.78750
H1426       H  0.21121554  0.78520733  0.51892998     0.79840
H1427       H  0.30672294  0.79665986  0.49896962     0.82060
H1428       H  0.22026603  0.72470755  0.40431450     0.79670
H1429       H  0.22171087  0.78799955  0.61269882     0.42710
H1430       H  0.24601534  0.83595025  0.54667430     0.41680
H1431       H  0.30317696  0.84956153  0.44468258     0.41350
H1432       H  0.32583594  0.81239526  0.42004093     0.39290
H1433       H  0.26071669  0.71714790  0.39091295     0.42420
H1434       H  0.21546573  0.66788917  0.42527633     0.37200
H1435       H  0.15374092  0.66209088  0.51802282     0.43320
H1436       H  0.17599692  0.68212658  0.62071335     0.39730
H1437       H  0.31422104  0.80449795  0.37220571     0.44650
H1438       H  0.19793699  0.64316832  0.46293539     0.43380
H1439       H  0.16666635  0.69907921  0.64036816     0.43510
H1440       H  0.26990864  0.84057438  0.57818520     0.43870
C1441       C  0.22578267  0.72401640  0.73711379    -0.11980
C1442       C  0.24798378  0.72885585  0.71414238     0.05030
C1443       C  0.26974912  0.73036858  0.74010750    -0.07260
C1444       C  0.26972185  0.72957662  0.78701116    -0.08010
C1445       C  0.24834430  0.72696575  0.80875752    -0.02560
C1446       C  0.22556534  0.72278820  0.78354207     0.04260
N1447       N  0.20205950  0.71751043  0.80466048     0.66760
H1448       H  0.20815516  0.72126451  0.71885962     0.15660
H1449       H  0.28723578  0.73268634  0.80619464     0.15370
N1450       N  0.29234989  0.73346731  0.71993545     0.74470
O1451       O  0.18829121  0.72636247  0.78492109    -0.38980
O1452       O  0.19298013  0.70093681  0.84034763    -0.38920
O1453       O  0.30843988  0.75592781  0.69527805    -0.39630
O1454       O  0.29944569  0.71681228  0.73406157    -0.39690
C1455       C  0.25506346  0.77706305  0.27061296    -0.11980
C1456       C  0.23307087  0.77456458  0.29065497     0.05030
C1457       C  0.21324391  0.77513708  0.26164644    -0.07260
C1458       C  0.21508965  0.77599824  0.21468915    -0.08010
C1459       C  0.23667792  0.77719948  0.19578281    -0.02560
C1460       C  0.25722952  0.77857193  0.22449827     0.04260
N1461       N  0.28038604  0.78090332  0.20740491     0.66760
H1462       H  0.27107155  0.77749913  0.29103673     0.15660
H1463       H  0.19928845  0.77509654  0.19294755     0.15370
N1464       N  0.19145997  0.77516431  0.27873150     0.74470
O1465       O  0.29194036  0.79685124  0.17201606    -0.38980
O1466       O  0.29073708  0.76884806  0.22953266    -0.38920
O1467       O  0.19654637  0.79209616  0.30632473    -0.39630
O1468       O  0.16812760  0.76193093  0.26089805    -0.39690
C1469       C  0.26054942  0.88010488  0.42258500    -0.11980
C1470       C  0.23451376  0.85510798  0.41631099     0.05030
C1471       C  0.21400269  0.85881861  0.39737595    -0.07260
C1472       C  0.21913473  0.88634841  0.39142746    -0.08010
C1473       C  0.24408024  0.91055851  0.40427272    -0.02560
C1474       C  0.26527867  0.90711287  0.41796231     0.04260
N1475       N  0.29097480  0.92995687  0.43236139     0.66760
H1476       H  0.27742606  0.87867040  0.43470071     0.15660
H1477       H  0.20259444  0.88841209  0.37961327     0.15370
N1478       N  0.18767478  0.83535866  0.38558270     0.74470
O1479       O  0.29320262  0.93561359  0.47185879    -0.38980
O1480       O  0.31213985  0.93770070  0.41176467    -0.38920
O1481       O  0.17441189  0.81356734  0.41311402    -0.39630
O1482       O  0.17571070  0.83833982  0.35108457    -0.39690
C1483       C  0.24403025  0.63569721  0.52544615    -0.11980
C1484       C  0.24539056  0.64521181  0.56639785     0.05030
C1485       C  0.23869641  0.62559029  0.60560740    -0.07260
C1486       C  0.23211954  0.59777832  0.60186842    -0.08010
C1487       C  0.22968415  0.58824348  0.56007658    -0.02560
C1488       C  0.23502636  0.60766450  0.52126528     0.04260
N1489       N  0.23182136  0.59943893  0.47694421     0.66760
H1490       H  0.24842147  0.65020090  0.49537619     0.15660
H1491       H  0.22922133  0.58358045  0.63167106     0.15370
N1492       N  0.23865881  0.63325962  0.64896462     0.74470
O1493       O  0.24203457  0.61809347  0.44366547    -0.38980
O1494       O  0.21660791  0.57369445  0.47005156    -0.38920
O1495       O  0.24229534  0.65668365  0.65319025    -0.39630
O1496       O  0.23515936  0.61658765  0.68366820    -0.39690
C1497       C  0.21698721  0.50059857  0.76110676    -0.11980
C1498       C  0.22098694  0.98132340  0.78999603     0.05030
C1499       C  0.22377321  0.96154431  0.77250055    -0.07260
C1500       C  0.22504164  0.96265547  0.72618054    -0.08010
C1501       C  0.22295478  0.98248652  0.69704941    -0.02560
C1502       C  0.21745730  0.50119374  0.71478873     0.04260
N1503       N  0.21725810  0.52335376  0.68647125     0.66760
H1504       H  0.21617222  0.51658726  0.77458536     0.15660
H1505       H  0.22736358  0.94768743  0.71260112     0.15370
N1506       N  0.22554020  0.94044000  0.80085540     0.74470
O1507       O  0.20369727  0.53231010  0.69751211    -0.38980
O1508       O  0.23398853  0.53714545  0.65477191    -0.38920
O1509       O  0.21006666  0.92722971  0.83413769    -0.39630
O1510       O  0.23834205  0.93108951  0.78800503    -0.39690
C1511       C  0.24431169  0.52234602  0.25696348    -0.11980
C1512       C  0.26497230  0.52366287  0.28480054     0.05030
C1513       C  0.28870039  0.52954909  0.26453853    -0.07260
C1514       C  0.29034208  0.53239476  0.21784650    -0.08010
C1515       C  0.26871542  0.52902436  0.19074049    -0.02560
C1516       C  0.24585332  0.52501137  0.21056790     0.04260
N1517       N  0.22377902  0.52316140  0.18409287     0.66760
H1518       H  0.22350147  0.01899679  0.26934668     0.15660
H1519       H  0.30776296  0.53517607  0.20292825     0.15370
N1520       N  0.31083947  0.53148087  0.29035654     0.74470
O1521       O  0.19787714  0.00835310  0.19594432    -0.38980
O1522       O  0.22863400  0.53932294  0.14821236    -0.38920
O1523       O  0.30821621  0.50906950  0.30926163    -0.39630
O1524       O  0.33442862  0.55403656  0.28536409    -0.39690
C1525       C  0.24990557  0.87744562  0.90223767    -0.11980
C1526       C  0.23080746  0.85352459  0.93016538     0.05030
C1527       C  0.20900530  0.85314250  0.94738095    -0.07260
C1528       C  0.20638753  0.87570857  0.93431670    -0.08010
C1529       C  0.22804130  0.90131638  0.91411120    -0.02560
C1530       C  0.25009785  0.90227571  0.89672415     0.04260
N1531       N  0.27395931  0.92857254  0.87795387     0.66760
H1532       H  0.26667185  0.87799115  0.88940824     0.15660
H1533       H  0.19015375  0.87533844  0.94899781     0.15370
N1534       N  0.19166817  0.83276231  0.98299176     0.74470
O1535       O  0.29645444  0.93112877  0.87722446    -0.38980
O1536       O  0.27296720  0.94955756  0.86277028    -0.38920
O1537       O  0.20218310  0.83307184  0.02098485    -0.39630
O1538       O  0.16672548  0.82364956  0.98138041    -0.39690
C1539       C  0.24181410  0.60363747  0.08071566    -0.11980
C1540       C  0.26792110  0.61103288  0.06985575     0.05030
C1541       C  0.29008584  0.63991226  0.06995105    -0.07260
C1542       C  0.28431340  0.66034732  0.07335894    -0.08010
C1543       C  0.25750528  0.65299162  0.07654391    -0.02560
C1544       C  0.23599960  0.62402112  0.08235975     0.04260
N1545       N  0.20798162  0.61484930  0.08553825     0.66760
H1546       H  0.22503689  0.58146293  0.08364307     0.15660
H1547       H  0.30071143  0.68259523  0.06923345     0.15370
N1548       N  0.31811908  0.64950181  0.06528266     0.74470
O1549       O  0.18887600  0.59003781  0.07801543    -0.38980
O1550       O  0.20201851  0.63072607  0.09804174    -0.38920
O1551       O  0.32445452  0.63569026  0.04682482    -0.39630
O1552       O  0.33703749  0.67256855  0.07921193    -0.39690
C1553       C  0.37894120  0.62455627  0.52297361    -0.11980
C1554       C  0.37953173  0.64962700  0.51003487     0.05030
C1555       C  0.36414535  0.64963871  0.47190726    -0.07260
C1556       C  0.34934232  0.62571091  0.44855450    -0.08010
C1557       C  0.34882901  0.60093893  0.46161075    -0.02560
C1558       C  0.36453508  0.60089364  0.49877419     0.04260
N1559       N  0.36512457  0.57662421  0.51392465     0.66760
H1560       H  0.39056882  0.62350414  0.55171928     0.15660
H1561       H  0.33741894  0.62629679  0.41988248     0.15370
N1562       N  0.36454095  0.67406138  0.45380091     0.74470
O1563       O  0.38689949  0.57809859  0.51056480    -0.38980
O1564       O  0.34687103  0.55707886  0.54023265    -0.38920
O1565       O  0.38567479  0.69436858  0.43359970    -0.39630
O1566       O  0.34213646  0.67125415  0.44412931    -0.39690
C1567       C  0.10975538  0.84533094  0.49970207    -0.11980
C1568       C  0.09527990  0.85031807  0.46497143     0.05030
C1569       C  0.09968339  0.87769850  0.45875561    -0.07260
C1570       C  0.11713321  0.89825419  0.48800006    -0.08010
C1571       C  0.13213382  0.89349155  0.52191389    -0.02560
C1572       C  0.12825583  0.86638436  0.52741390     0.04260
N1573       N  0.14318148  0.85983679  0.56062654     0.66760
H1574       H  0.10593716  0.82441192  0.50666185     0.15660
H1575       H  0.12080962  0.91914699  0.48165678     0.15370
N1576       N  0.08769034  0.88564793  0.42169984     0.74470
O1577       O  0.14711758  0.86779294  0.59889997    -0.38980
O1578       O  0.15073856  0.84426034  0.55286140    -0.38920
O1579       O  0.08302285  0.90424144  0.42447264    -0.39630
O1580       O  0.08559494  0.87743704  0.38417362    -0.39690
C1581       C  0.36139994  0.72589657  0.47978689    -0.11980
C1582       C  0.38156472  0.74745053  0.44996512     0.05030
C1583       C  0.37973541  0.76985407  0.42981807    -0.07260
C1584       C  0.35875252  0.77128904  0.44324362    -0.08010
C1585       C  0.34001684  0.75088458  0.47594757    -0.02560
C1586       C  0.34073722  0.72743183  0.49329494     0.04260
N1587       N  0.32124067  0.70540217  0.52514012     0.66760
H1588       H  0.36365337  0.70955019  0.49720124     0.15660
H1589       H  0.35717787  0.78863724  0.42862253     0.15370
N1590       N  0.39980207  0.79208195  0.39862081     0.74470
O1591       O  0.30941703  0.67978622  0.51846376    -0.38980
O1592       O  0.32097596  0.71096443  0.56382332    -0.38920
O1593       O  0.41014832  0.78645498  0.37067293    -0.39630
O1594       O  0.40475011  0.81669670  0.39521937    -0.39690
C1595       C  0.09909669  0.74428649  0.56695450    -0.11980
C1596       C  0.09417511  0.75752620  0.52871868     0.05030
C1597       C  0.11210360  0.76937077  0.49209530    -0.07260
C1598       C  0.13202469  0.76444393  0.49202383    -0.08010
C1599       C  0.13569055  0.74896346  0.52797187    -0.02560
C1600       C  0.11988387  0.73980212  0.56711755     0.04260
N1601       N  0.12322233  0.72448118  0.60579246     0.66760
H1602       H  0.08541351  0.73530216  0.59516037     0.15660
H1603       H  0.14429291  0.77231454  0.46246926     0.15370
N1604       N  0.10914097  0.78447707  0.45276523     0.74470
O1605       O  0.12216436  0.72999779  0.64414124    -0.38980
O1606       O  0.12191190  0.70217100  0.60210091    -0.38920
O1607       O  0.12449347  0.81123465  0.44777748    -0.39630
O1608       O  0.09807435  0.77163483  0.41872978    -0.39690
C1609       C  0.45988879  0.72083980  0.76645931    -0.11980
C1610       C  0.48447010  0.74431764  0.78094610     0.05030
C1611       C  0.50050535  0.76855000  0.75051230    -0.07260
C1612       C  0.49143379  0.76904595  0.70657554    -0.08010
C1613       C  0.46776298  0.74521158  0.69096392    -0.02560
C1614       C  0.45140891  0.72073317  0.72141253     0.04260
N1615       N  0.42676578  0.69574574  0.70729631     0.66760
H1616       H  0.44713710  0.70275470  0.79056010     0.15660
H1617       H  0.00438975  0.78701080  0.68297421     0.15370
N1618       N  0.02664839  0.79204097  0.76319467     0.74470
O1619       O  0.41634665  0.67213197  0.73115041    -0.38980
O1620       O  0.41398426  0.69751546  0.67305134    -0.38920
O1621       O  0.04147931  0.78800836  0.79096754    -0.39630
O1622       O  0.03652613  0.81652116  0.74258149    -0.39690
C1623       C  0.49505504  0.77098650  0.21117097    -0.11980
C1624       C  0.00256580  0.75511344  0.19350068     0.05030
C1625       C  0.01736569  0.74613808  0.22124767    -0.07260
C1626       C  0.02013111  0.74907215  0.26724320    -0.08010
C1627       C  0.01066135  0.76312255  0.28542313    -0.02560
C1628       C  0.50001964  0.77617601  0.25589480     0.04260
N1629       N  0.49443479  0.79504717  0.27096500     0.66760
H1630       H  0.48548944  0.77986887  0.19001623     0.15660
H1631       H  0.02962981  0.74028401  0.28885297     0.15370
N1632       N  0.03127460  0.73595648  0.20290670     0.74470
O1633       O  0.51106739  0.81311367  0.29653524    -0.38980
O1634       O  0.47464434  0.79594912  0.25490083    -0.38920
O1635       O  0.04721047  0.75059096  0.17040825    -0.39630
O1636       O  0.03212972  0.71598071  0.22426450    -0.39690
C1637       C  0.39241297  0.66161774  0.91031855    -0.11980
C1638       C  0.41236408  0.65670031  0.90315564     0.05030
C1639       C  0.40475206  0.62854409  0.90491743    -0.07260
C1640       C  0.37833764  0.60644123  0.91830610    -0.08010
C1641       C  0.36035489  0.61226417  0.93266933    -0.02560
C1642       C  0.36694515  0.63997213  0.92767787     0.04260
N1643       N  0.34864912  0.64655374  0.94127530     0.66760
H1644       H  0.39705688  0.68267218  0.90394113     0.15660
H1645       H  0.37224917  0.58466052  0.91971293     0.15370
N1646       N  0.42305543  0.62193629  0.89268861     0.74470
O1647       O  0.35793618  0.66897167  0.95888365    -0.38980
O1648       O  0.32318583  0.63003909  0.93627826    -0.38920
O1649       O  0.44057359  0.62306864  0.92043900    -0.39630
O1650       O  0.41762639  0.60890165  0.85905198    -0.39690
C1651       C  0.08261868  0.87261763  0.02461108    -0.11980
C1652       C  0.07796548  0.85489328  0.06426923     0.05030
C1653       C  0.09993947  0.86094953  0.09326876    -0.07260
C1654       C  0.12621209  0.88397807  0.08111670    -0.08010
C1655       C  0.13129459  0.89950953  0.03874749    -0.02560
C1656       C  0.10907321  0.89362430  0.00999459     0.04260
N1657       N  0.11258524  0.90670131  0.96483292     0.66760
H1658       H  0.06600599  0.86682202  0.00107799     0.15660
H1659       H  0.14302766  0.88818896  0.10339476     0.15370
N1660       N  0.09639681  0.84202468  0.13236082     0.74470
O1661       O  0.12422002  0.90225529  0.93740061    -0.38980
O1662       O  0.09683381  0.91405342  0.94969307    -0.38920
O1663       O  0.09493908  0.81961944  0.12871435    -0.39630
O1664       O  0.10118833  0.85077350  0.17012678    -0.39690
C1665       C  0.38796594  0.75412057  0.98099565    -0.11980
C1666       C  0.39474807  0.75012958  0.02584416     0.05030
C1667       C  0.37510698  0.74103864  0.05884089    -0.07260
C1668       C  0.34945889  0.73606668  0.04569457    -0.08010
C1669       C  0.34233302  0.73902897  0.00054994    -0.02560
C1670       C  0.36223312  0.74862818  0.96776769     0.04260
N1671       N  0.35705208  0.75354091  0.92122130     0.66760
H1672       H  0.40279537  0.76071254  0.95553461     0.15660
H1673       H  0.33519999  0.73110155  0.07124276     0.15370
N1674       N  0.38084471  0.73721717  0.10545867     0.74470
O1675       O  0.37664543  0.76999178  0.89462912    -0.38980
O1676       O  0.33312705  0.73973955  0.90567962    -0.38920
O1677       O  0.40511819  0.74966087  0.11952560    -0.39630
O1678       O  0.36167307  0.72333617  0.13342468    -0.39690
C1679       C  0.11977102  0.73687077  0.01508007    -0.11980
C1680       C  0.14460403  0.75740746  0.99301435     0.05030
C1681       C  0.14291188  0.76991864  0.94980346    -0.07260
C1682       C  0.11753584  0.76480658  0.93406173    -0.08010
C1683       C  0.09305000  0.74512351  0.95727372    -0.02560
C1684       C  0.09436966  0.73020130  0.99753065     0.04260
N1685       N  0.07033502  0.70916529  0.02256517     0.66760
H1686       H  0.12004860  0.72558548  0.04673056     0.15660
H1687       H  0.11674454  0.77625339  0.90302313     0.15370
N1688       N  0.16607304  0.78695624  0.92065432     0.74470
O1689       O  0.06649173  0.68548484  0.03693399    -0.38980
O1690       O  0.05659416  0.71635883  0.03866155    -0.38920
O1691       O  0.18336709  0.78097728  0.92025114    -0.39630
O1692       O  0.16681194  0.80469090  0.88997886    -0.39690
C1693       C  0.37778673  0.88274763  0.60981925    -0.11980
C1694       C  0.37538173  0.90254087  0.58014998     0.05030
C1695       C  0.35080905  0.89240841  0.55586498    -0.07260
C1696       C  0.32986982  0.86337988  0.56245494    -0.08010
C1697       C  0.33290530  0.84310615  0.58890584    -0.02560
C1698       C  0.35716193  0.85321505  0.61415447     0.04260
N1699       N  0.36124992  0.83429471  0.64438700     0.66760
H1700       H  0.39692979  0.89026991  0.62738569     0.15660
H1701       H  0.31150730  0.85620796  0.54350507     0.15370
N1702       N  0.34736826  0.91025252  0.52135663     0.74470
O1703       O  0.38506541  0.84134335  0.65545461    -0.38980
O1704       O  0.34126593  0.81224237  0.66453141    -0.38920
O1705       O  0.36680370  0.92876417  0.49580367    -0.39630
O1706       O  0.32379404  0.90443741  0.51164087    -0.39690
C1707       C  0.09445451  0.62191382  0.37779835    -0.11980
C1708       C  0.09486976  0.59849025  0.39875779     0.05030
C1709       C  0.11797794  0.60394942  0.42362507    -0.07260
C1710       C  0.13854260  0.63189432  0.43026517    -0.08010
C1711       C  0.13770611  0.65551513  0.41217310    -0.02560
C1712       C  0.11513091  0.65026336  0.38522472     0.04260
N1713       N  0.11188964  0.67264898  0.36717185     0.66760
H1714       H  0.07604970  0.61777278  0.36052312     0.15660
H1715       H  0.15528141  0.63492469  0.45148065     0.15370
N1716       N  0.11924618  0.58116911  0.44729431     0.74470
O1717       O  0.10151135  0.67199391  0.32893127    -0.38980
O1718       O  0.11400875  0.68951273  0.39231515    -0.38920
O1719       O  0.11048003  0.55896096  0.42940015    -0.39630
O1720       O  0.13069617  0.58389424  0.48500560    -0.39690
C1721       C  0.34483323  0.50678002  0.46512652    -0.11980
C1722       C  0.34225258  0.99515514  0.49717020     0.05030
C1723       C  0.36279182  0.00045888  0.52911475    -0.07260
C1724       C  0.38806099  0.00794228  0.51415175    -0.08010
C1725       C  0.38636140  0.50814879  0.47465040    -0.02560
C1726       C  0.36795456  0.51123131  0.44637452     0.04260
N1727       N  0.37250887  0.51930966  0.39926804     0.66760
H1728       H  0.33072839  0.50910034  0.44327556     0.15660
H1729       H  0.40375383  0.01136211  0.53848209     0.15370
N1730       N  0.35848581  0.99786619  0.57599082     0.74470
O1731       O  0.35272633  0.50783970  0.37247430    -0.38980
O1732       O  0.39504126  0.54108159  0.38502088    -0.38920
O1733       O  0.33684963  0.97657756  0.59386301    -0.39630
O1734       O  0.37325699  0.50235369  0.61334920    -0.39690
C1735       C  0.11370727  0.98373094  0.46045640    -0.11980
C1736       C  0.13709622  0.00430990  0.48141475     0.05030
C1737       C  0.13687515  0.51995774  0.50868362    -0.07260
C1738       C  0.11157169  0.51433882  0.51804317    -0.08010
C1739       C  0.08800045  0.49351777  0.49787417    -0.02560
C1740       C  0.08827460  0.97783176  0.46972473     0.04260
N1741       N  0.06434371  0.95437093  0.45170413     0.66760
H1742       H  0.11493004  0.97063375  0.43962193     0.15660
H1743       H  0.11055284  0.52727039  0.53952191     0.15370
N1744       N  0.16045296  0.54195564  0.52947306     0.74470
O1745       O  0.06458700  0.94888288  0.41292665    -0.38980
O1746       O  0.04503692  0.93609321  0.47754162    -0.38920
O1747       O  0.17242205  0.56694721  0.51010217    -0.39630
O1748       O  0.16349423  0.53828610  0.57101115    -0.39690
C1749       C  0.46975725  0.84994639  0.45830464    -0.11980
C1750       C  0.47244451  0.84537679  0.50495936     0.05030
C1751       C  0.48158226  0.86832003  0.52978177    -0.07260
C1752       C  0.48802543  0.89468214  0.50750418    -0.08010
C1753       C  0.48598684  0.89958913  0.46084148    -0.02560
C1754       C  0.47674650  0.87665963  0.43575952     0.04260
N1755       N  0.97540829  0.88002304  0.38789587     0.66760
H1756       H  0.46365476  0.83286833  0.43882122     0.15660
H1757       H  0.49440728  0.91159619  0.52742583     0.15370
N1758       N  0.48334305  0.86515591  0.57772667     0.74470
O1759       O  0.96533277  0.85891722  0.36634314    -0.38980
O1760       O  0.48700286  0.90480089  0.36634526    -0.38920
O1761       O  0.49070096  0.84979784  0.59803745    -0.39630
O1762       O  0.47807624  0.87841626  0.60013032    -0.39690
C1763       C  0.46673721  0.60026405  0.48238525    -0.11980
C1764       C  0.48119442  0.59947014  0.52098250     0.05030
C1765       C  0.00454704  0.62675072  0.53554350    -0.07260
C1766       C  0.01035481  0.65258369  0.51119021    -0.08010
C1767       C  0.49488118  0.65283306  0.47178815    -0.02560
C1768       C  0.47352409  0.62621446  0.45734664     0.04260
N1769       N  0.45896759  0.62510877  0.41643683     0.66760
H1770       H  0.45139625  0.58042907  0.46947853     0.15660
H1771       H  0.02542232  0.67249819  0.52409865     0.15370
N1772       N  0.01991274  0.62798238  0.57541283     0.74470
O1773       O  0.43457648  0.60448947  0.41192762    -0.38980
O1774       O  0.47123677  0.64312357  0.38314284    -0.38920
O1775       O  0.04400779  0.64923543  0.57960068    -0.39630
O1776       O  0.00872456  0.60903914  0.60809878    -0.39690
C1777       C  0.45377155  0.97837046  0.76933619    -0.11980
C1778       C  0.47441118  0.97638453  0.79152121     0.05030
C1779       C  0.99269444  0.97708536  0.76503292    -0.07260
C1780       C  0.99100537  0.98036926  0.71861479    -0.08010
C1781       C  0.47236848  0.98368683  0.69713164    -0.02560
C1782       C  0.45253150  0.98211451  0.72257017     0.04260
N1783       N  0.43160023  0.98513806  0.70217522     0.66760
H1784       H  0.43936097  0.97860273  0.78860498     0.15660
H1785       H  0.00620617  0.98103988  0.70015130     0.15370
N1786       N  0.01523150  0.97669317  0.78515144     0.74470
O1787       O  0.40701366  0.96640811  0.71245651    -0.38980
O1788       O  0.43698820  0.50926999  0.68288241    -0.38920
O1789       O  0.01138774  0.95864721  0.81786900    -0.39630
O1790       O  0.03907595  0.49073338  0.76771096    -0.39690
C1791       C  0.48326841  0.51677441  0.20537721    -0.11980
C1792       C  0.50676989  0.52078839  0.18994741     0.05030
C1793       C  0.02883401  0.52144862  0.21944255    -0.07260
C1794       C  0.02431698  0.51674305  0.26542794    -0.08010
C1795       C  0.00018856  0.51115245  0.28234541    -0.02560
C1796       C  0.47767631  0.51106118  0.25066143     0.04260
N1797       N  0.45129559  0.50245050  0.26419255     0.66760
H1798       H  0.46791329  0.51544553  0.18184463     0.15660
H1799       H  0.03972589  0.51748642  0.28806456     0.15370
N1800       N  0.05329624  0.52616940  0.20279912     0.74470
O1801       O  0.44261827  0.51784120  0.25115508    -0.38980
O1802       O  0.43809829  0.97688005  0.28451924    -0.38920
O1803       O  0.06287776  0.54013673  0.16526634    -0.39630
O1804       O  0.06648479  0.51800833  0.22685687    -0.39690
C1805       C  0.36639310  0.89364684  0.95340679    -0.11980
C1806       C  0.38926350  0.89758393  0.97789750     0.05030
C1807       C  0.38498749  0.88636669  0.02370593    -0.07260
C1808       C  0.35874135  0.87162360  0.04244572    -0.08010
C1809       C  0.33564610  0.86652692  0.01766764    -0.02560
C1810       C  0.33990135  0.87846670  0.97210214     0.04260
N1811       N  0.31797893  0.87511415  0.94356687     0.66760
H1812       H  0.36939056  0.90331834  0.91914821     0.15660
H1813       H  0.35600013  0.86238854  0.07695026     0.15370
N1814       N  0.40659245  0.88911118  0.05229443     0.74470
O1815       O  0.30013762  0.87744265  0.95787303    -0.38980
O1816       O  0.31876265  0.87429676  0.90232020    -0.38920
O1817       O  0.40647688  0.89152362  0.09306087    -0.39630
O1818       O  0.42158681  0.88228473  0.03991631    -0.39690
C1819       C  0.15175006  0.62080549  0.00744818    -0.11980
C1820       C  0.15292721  0.64198407  0.97682635     0.05030
C1821       C  0.12914734  0.64280933  0.97132088    -0.07260
C1822       C  0.10664355  0.62452932  0.99915805    -0.08010
C1823       C  0.10520113  0.60303242  0.02881047    -0.02560
C1824       C  0.12818965  0.60105423  0.03272242     0.04260
N1825       N  0.12753442  0.57822922  0.06026365     0.66760
H1826       H  0.16944843  0.61983546  0.01248033     0.15660
H1827       H  0.08874206  0.62513902  0.99380924     0.15370
N1828       N  0.12693072  0.66172840  0.93764933     0.74470
O1829       O  0.13711934  0.56600454  0.04587179    -0.38980
O1830       O  0.11776721  0.57043070  0.09908188    -0.38920
O1831       O  0.13383221  0.66430033  0.89807037    -0.39630
O1832       O  0.11279062  0.67083446  0.94508853    -0.39690
C1833       C  0.41791806  0.55866610  0.04115740    -0.11980
C1834       C  0.41783558  0.53405423  0.05493609     0.05030
C1835       C  0.39260707  0.00950324  0.07310067    -0.07260
C1836       C  0.36840281  0.00908192  0.07076382    -0.08010
C1837       C  0.36767189  0.53294602  0.05359499    -0.02560
C1838       C  0.39371753  0.55881650  0.04171273     0.04260
N1839       N  0.39642826  0.58535732  0.02920797     0.66760
H1840       H  0.43658825  0.57760179  0.02743026     0.15660
H1841       H  0.34948196  0.98941727  0.08193304     0.15370
N1842       N  0.39106933  0.98429098  0.09248735     0.74470
O1843       O  0.41880623  0.60847812  0.03490044    -0.38980
O1844       O  0.37673783  0.58612305  0.01267009    -0.38920
O1845       O  0.41076160  0.98628202  0.11514380    -0.39630
O1846       O  0.36927655  0.96005130  0.09019745    -0.39690
C1847       C  0.08891369  0.97005283  0.97067125    -0.11980
C1848       C  0.07668318  0.97147485  0.92949174     0.05030
C1849       C  0.09121481  0.97547138  0.89064645    -0.07260
C1850       C  0.11620847  0.97681839  0.89490814    -0.08010
C1851       C  0.12857633  0.97633104  0.93669078    -0.02560
C1852       C  0.11424031  0.97285116  0.97498739     0.04260
N1853       N  0.12555069  0.97321086  0.01897688     0.66760
H1854       H  0.07924607  0.96847603  0.00060625     0.15660
H1855       H  0.12723672  0.98059517  0.86515855     0.15370
N1856       N  0.08214206  0.97999599  0.84678655     0.74470
O1857       O  0.12082105  0.98298900  0.04905994    -0.38980
O1858       O  0.13867610  0.96202595  0.02894136    -0.38920
O1859       O  0.07081145  0.49341623  0.84174781    -0.39630
O1860       O  0.08914112  0.97480622  0.81321991    -0.39690
C1861       C  0.46683273  0.86553712  0.01609416    -0.11980
C1862       C  0.99149809  0.88945369  0.02817162     0.05030
C1863       C  0.01640603  0.89368743  0.01827509    -0.07260
C1864       C  0.01597609  0.87632119  0.98998650    -0.08010
C1865       C  0.49135736  0.85355975  0.97570510    -0.02560
C1866       C  0.46646828  0.84851661  0.98735709     0.04260
N1867       N  0.44086672  0.82602570  0.97058887     0.66760
H1868       H  0.44789222  0.86275883  0.02314260     0.15660
H1869       H  0.03474256  0.87872134  0.98281701     0.15370
N1870       N  0.04194683  0.91481898  0.03732523     0.74470
O1871       O  0.41866937  0.81813242  0.98789168    -0.38980
O1872       O  0.44014383  0.81629216  0.93530276    -0.38920
O1873       O  0.04268650  0.92967325  0.06500767    -0.39630
O1874       O  0.06326544  0.91578766  0.03170478    -0.39690
C1875       C  0.01412107  0.65273803  0.94728132    -0.11980
C1876       C  0.50420823  0.64927883  0.98988824     0.05030
C1877       C  0.50217856  0.62830700  0.02270376    -0.07260
C1878       C  0.50964938  0.61104730  0.01090483    -0.08010
C1879       C  0.51691774  0.61301541  0.96685957    -0.02560
C1880       C  0.02017835  0.63452856  0.93515311     0.04260
N1881       N  0.03005850  0.63862295  0.89098964     0.66760
H1882       H  0.01690297  0.66975749  0.92262966     0.15660
H1883       H  0.50805637  0.59463399  0.03555687     0.15370
N1884       N  0.49110722  0.62287787  0.06638508     0.74470
O1885       O  0.02409012  0.65077376  0.85886812    -0.38980
O1886       O  0.04698764  0.63282582  0.88468087    -0.38920
O1887       O  0.47153886  0.62499867  0.07143573    -0.39630
O1888       O  0.49782803  0.61156934  0.09873644    -0.39690
O1889       O  0.57510304  0.05473139  0.04012690    -0.75000
O1890       O  0.55648036  0.07937992  0.04243956    -0.53910
C1891       C  0.57742141  0.07788974  0.04030244     0.78730
O1892       O  0.48459008  0.00441050  0.84820913    -0.59600
O1893       O  0.47822008  0.46137925  0.86662142    -0.52630
C1894       C  0.47886719  0.48070787  0.83824097     0.70740
O1895       O  0.50497313  0.07619320  0.92398753    -0.74160
O1896       O  0.03106951  0.08314239  0.98376292    -0.54720
C1897       C  0.01861270  0.09047894  0.95603213     0.76750
O1898       O  0.56639587  0.00410254  0.93912932    -0.59300
O1899       O  0.52879120  0.45950903  0.93250055    -0.52420
C1900       C  0.55541597  0.47843964  0.93173828     0.73340
Zr1901     Zr  0.55142862  0.02379606  0.98460918     2.54710
O1902       O  0.58749798  0.06592808  0.94048348    -0.79870
O1903       O  0.58097545  0.01060399  0.02272467    -0.93290
Zr1904     Zr  0.49735511  0.03138941  0.91123385     2.64680
O1905       O  0.53579467  0.06560516  0.86245385    -0.98240
O1906       O  0.96570353  0.03786005  0.86289614    -0.80300
O1907       O  0.52930114  0.04755391  0.97012966    -0.83660
O1908       O  0.51996254  0.00774293  0.92439276    -2.18370
O1909       O  0.99508082  0.42737904  0.05831504    -0.67050
O1910       O  0.48589233  0.42069566  0.98414500    -0.51610
C1911       C  0.49078250  0.41425485  0.02414755     0.71720
O1912       O  0.92891244  0.50731679  0.02210582    -0.59960
O1913       O  0.96615918  0.04570049  0.05023439    -0.51930
C1914       C  0.93976692  0.02973456  0.04154302     0.73520
O1915       O  0.92151597  0.44463365  0.94722823    -0.71350
O1916       O  0.93697639  0.41736616  0.95632314    -0.50030
C1917       C  0.91706640  0.42031115  0.95834221     0.74910
O1918       O  0.00299009  0.49439658  0.13503068    -0.66680
O1919       O  0.01104290  0.03866088  0.11495951    -0.53880
C1920       C  0.00810836  0.01829369  0.14320219     0.73290
Zr1921     Zr  0.99631396  0.46900647  0.07225256     2.77540
O1922       O  0.96307974  0.43136971  0.12582635    -0.97430
O1923       O  0.53432014  0.47346752  0.11571960    -0.78250
Zr1924     Zr  0.94169052  0.47718295  0.00204215     2.70070
O1925       O  0.91813958  0.44531227  0.06884383    -0.79500
O1926       O  0.89423447  0.46152550  0.99048578    -0.98580
Zr1927     Zr  0.00647974  0.04196333  0.03566124     2.21500
Zr1928     Zr  0.48618803  0.45919462  0.94676813     2.11130
O1929       O  0.96375965  0.45297164  0.01522349    -2.47270
O1930       O  0.97404514  0.49311240  0.06010387    -0.79290
O1931       O  0.51857444  0.47584062  0.00563320    -0.71490
O1932       O  0.97393848  0.02560071  0.97606224    -2.32440
O1933       O  0.52800582  0.01678015  0.05093908    -2.28650
O1934       O  0.96331734  0.48313203  0.93430414    -0.73250
H1935       H  0.52888169  0.00971616  0.89760680     0.78750
H1936       H  0.96578760  0.03617497  0.96947640     0.79840
H1937       H  0.95080490  0.43328937  0.02627626     0.82060
H1938       H  0.53882936  0.02213579  0.07780258     0.79670
H1939       H  0.94747658  0.02252171  0.87504367     0.42710
H1940       H  0.89113522  0.46177698  0.95788472     0.41680
H1941       H  0.93187405  0.45081206  0.09303860     0.41350
H1942       H  0.95886287  0.41353157  0.11633057     0.39290
H1943       H  0.54571087  0.47326029  0.09403746     0.42420
H1944       H  0.58385367  0.01616184  0.05317143     0.37200
H1945       H  0.58082788  0.07837096  0.93363037     0.43320
H1946       H  0.53921149  0.05397687  0.84666393     0.39730
H1947       H  0.97363326  0.43353899  0.15379286     0.44650
H1948       H  0.59889303  0.02372224  0.00795794     0.43380
H1949       H  0.52825374  0.07337234  0.83926665     0.43510
H1950       H  0.88318860  0.44119254  0.00244422     0.43870
O1951       O  0.96338023  0.42162868  0.44161948    -0.75000
O1952       O  0.50674506  0.45092405  0.43595457    -0.53910
C1953       C  0.48472438  0.42529655  0.44264072     0.78730
O1954       O  0.91816555  0.01069084  0.41482395    -0.59600
O1955       O  0.92664032  0.00536822  0.48333207    -0.52630
C1956       C  0.91177114  0.00822296  0.45467260     0.70740
O1957       O  0.97707901  0.00945083  0.34380921    -0.74160
O1958       O  0.51136543  0.00141626  0.35620433    -0.54720
C1959       C  0.49640429  0.00729485  0.33097468     0.76750
O1960       O  0.91366396  0.42155458  0.53834450    -0.59300
O1961       O  0.91013493  0.45400589  0.56719388    -0.52420
C1962       C  0.90165995  0.42818534  0.56158211     0.73340
Zr1963     Zr  0.95036285  0.44277392  0.48776824     2.54710
O1964       O  0.91069633  0.41951689  0.43912399    -0.79870
O1965       O  0.93726458  0.39765609  0.53027987    -0.93290
Zr1966     Zr  0.95586670  0.00569213  0.41182488     2.64680
O1967       O  0.91730606  0.47160526  0.37882461    -0.98240
O1968       O  0.96333213  0.04740771  0.36454404    -0.80300
O1969       O  0.97015236  0.47416080  0.42169765    -0.83660
O1970       O  0.93777203  0.47501125  0.47923532    -2.18370
O1971       O  0.99228631  0.48679694  0.63007834    -0.67050
O1972       O  0.95912107  0.49536019  0.62447245    -0.51610
C1973       C  0.97442198  0.48881668  0.64728592     0.71720
O1974       O  0.55742915  0.08026103  0.44159837    -0.59960
O1975       O  0.55900853  0.04743840  0.40977330    -0.51930
C1976       C  0.56828480  0.07329781  0.41653820     0.73520
O1977       O  0.00362979  0.07606728  0.53663223    -0.71350
O1978       O  0.95798098  0.04703445  0.53994425    -0.50030
C1979       C  0.98043792  0.07241846  0.53464168     0.74910
O1980       O  0.55255747  0.99253931  0.53588517    -0.66680
O1981       O  0.55394452  0.99614736  0.45980049    -0.53880
C1982       C  0.56260622  0.99341427  0.49875949     0.73290
Zr1983     Zr  0.51456493  0.99376336  0.56177539     2.77540
O1984       O  0.55289136  0.02890410  0.60372067    -0.97430
O1985       O  0.51262618  0.45637737  0.60671675    -0.78250
Zr1986     Zr  0.52029353  0.05814210  0.49030078     2.70070
O1987       O  0.55995359  0.08635936  0.53657435    -0.79500
O1988       O  0.52458563  0.09933281  0.44630980    -0.98580
Zr1989     Zr  0.51751176  0.99968852  0.43549603     2.21500
Zr1990     Zr  0.95116133  0.99914655  0.54294491     2.11130
O1991       O  0.99967979  0.02590823  0.55303168    -2.47270
O1992       O  0.53437255  0.02666670  0.49786491    -0.79290
O1993       O  0.96740334  0.46811459  0.55105039    -0.71490
O1994       O  0.50586506  0.03359390  0.42589181    -2.32440
O1995       O  0.49573297  0.46748210  0.50014935    -2.28650
O1996       O  0.97031448  0.03112992  0.47610493    -0.73250
H1997       H  0.91811784  0.46381314  0.47614599     0.78750
H1998       H  0.51454997  0.04692366  0.39965462     0.79840
H1999       H  0.00519565  0.03613630  0.57881838     0.82060
H2000       H  0.50135867  0.45471797  0.50775789     0.79670
H2001       H  0.98297139  0.06232023  0.36776542     0.42710
H2002       H  0.00043519  0.09041373  0.43614575     0.41680
H2003       H  0.57150256  0.07924554  0.53430035     0.41350
H2004       H  0.54458887  0.03278322  0.62612906     0.39290
H2005       H  0.99581092  0.43780614  0.60061362     0.42420
H2006       H  0.95282563  0.40226735  0.55054041     0.37200
H2007       H  0.91704468  0.41593878  0.41332964     0.43320
H2008       H  0.92235821  0.45999567  0.36704687     0.39730
H2009       H  0.55984902  0.01833939  0.62125615     0.44650
H2010       H  0.93699869  0.38590739  0.50911945     0.43380
H2011       H  0.91467506  0.48188616  0.35204352     0.43510
H2012       H  0.53261978  0.11416174  0.46679863     0.43870
O2013       O  0.57450524  0.27172387  0.95077532    -0.75000
O2014       O  0.54484475  0.22573979  0.93910897    -0.53910
C2015       C  0.56922209  0.24733564  0.94705048     0.78730
O2016       O  0.49630053  0.22973094  0.13161824    -0.59600
O2017       O  0.49055714  0.26612162  0.12058996    -0.52630
C2018       C  0.49588589  0.24975056  0.14564694     0.70740
O2019       O  0.00069070  0.17868891  0.03359478    -0.74160
O2020       O  0.98573302  0.17377065  0.96229584    -0.54720
C2021       C  0.99591372  0.16784155  0.99676162     0.76750
O2022       O  0.56275542  0.30980425  0.05402746    -0.59300
O2023       O  0.53064765  0.31898148  0.05831556    -0.52420
C2024       C  0.55533081  0.32571628  0.06150959     0.73340
Zr2025     Zr  0.54981548  0.28220903  0.99335161     2.54710
O2026       O  0.58854053  0.28519286  0.03280878    -0.79870
O2027       O  0.57965175  0.32948112  0.95409808    -0.93290
Zr2028     Zr  0.49019175  0.20992748  0.06028271     2.64680
O2029       O  0.51476999  0.19559123  0.11240925    -0.98240
O2030       O  0.94866017  0.16850892  0.09454209    -0.80300
O2031       O  0.52287826  0.23211301  0.00140236    -0.83660
O2032       O  0.51830433  0.25979965  0.05311873    -2.18370
O2033       O  0.99547211  0.32350998  0.93659038    -0.67050
O2034       O  0.48812547  0.31497809  0.01203130    -0.51610
C2035       C  0.99149903  0.32897815  0.97373316     0.71720
O2036       O  0.94568192  0.20541512  0.90669617    -0.59960
O2037       O  0.96108685  0.18014688  0.89806709    -0.51930
C2038       C  0.94065648  0.18160494  0.89987708     0.73520
O2039       O  0.91224180  0.22378749  0.02026735    -0.71350
O2040       O  0.94226036  0.26715958  0.04401108    -0.50030
C2041       C  0.91791648  0.24679214  0.03279649     0.74910
O2042       O  0.98862234  0.26456498  0.84494556    -0.66680
O2043       O  0.99736070  0.23029675  0.85171644    -0.53880
C2044       C  0.99049000  0.24614578  0.82914869     0.73290
Zr2045     Zr  0.99718035  0.28571283  0.91341833     2.77540
O2046       O  0.96691146  0.29255206  0.86269859    -0.97430
O2047       O  0.53718462  0.32562916  0.87318979    -0.78250
Zr2048     Zr  0.93747002  0.21401748  0.97767976     2.70070
O2049       O  0.90426945  0.22030262  0.93565477    -0.79500
O2050       O  0.90298439  0.16475202  0.00485980    -0.98580
Zr2051     Zr  0.99952641  0.21980451  0.93233128     2.21500
Zr2052     Zr  0.48816136  0.27502984  0.04056281     2.11130
O2053       O  0.96461044  0.26383252  0.97176775    -2.47270
O2054       O  0.97029595  0.23609915  0.92060203    -0.79290
O2055       O  0.52089796  0.29821275  0.98150019    -0.71490
O2056       O  0.96588861  0.19742758  0.99218931    -2.32440
O2057       O  0.52715231  0.27050762  0.92378845    -2.28650
O2058       O  0.95990836  0.22476363  0.04782717    -0.73250
H2059       H  0.52857052  0.26519187  0.08040222     0.78750
H2060       H  0.95390271  0.17697435  0.99364149     0.79840
H2061       H  0.95313154  0.27080556  0.96596403     0.82060
H2062       H  0.53971256  0.27813602  0.89925180     0.79670
H2063       H  0.94850243  0.15216714  0.08743628     0.42710
H2064       H  0.91234282  0.15872233  0.02719629     0.41680
H2065       H  0.91456185  0.23422746  0.90971850     0.41350
H2066       H  0.95233767  0.28895532  0.88184765     0.39290
H2067       H  0.54532421  0.34093424  0.89280494     0.42420
H2068       H  0.58358469  0.32619154  0.92537369     0.37200
H2069       H  0.58057781  0.27162872  0.06008685     0.43320
H2070       H  0.53285072  0.21336099  0.11595594     0.39730
H2071       H  0.97744704  0.31320964  0.85282603     0.44650
H2072       H  0.59711052  0.33778745  0.97075165     0.43380
H2073       H  0.50563794  0.19015894  0.14147813     0.43510
H2074       H  0.89053899  0.16584572  0.02281879     0.43870
O2075       O  0.55548249  0.25300850  0.55674262    -0.75000
O2076       O  0.55953616  0.25223485  0.48281511    -0.53910
C2077       C  0.56803881  0.25419470  0.52294465     0.78730
O2078       O  0.92081506  0.17490088  0.54497854    -0.59600
O2079       O  0.90429417  0.20070763  0.52631536    -0.52630
C2080       C  0.90119344  0.17631175  0.53050618     0.70740
O2081       O  0.97297046  0.17559139  0.44626051    -0.74160
O2082       O  0.51852284  0.20557265  0.45573425    -0.54720
C2083       C  0.49668699  0.17978384  0.45574998     0.76750
O2084       O  0.98874084  0.24420232  0.63195948    -0.59300
O2085       O  0.95062432  0.24453637  0.61577814    -0.52420
C2086       C  0.96822813  0.24385647  0.64312864     0.73340
Zr2087     Zr  0.51221717  0.24709537  0.56865573     2.54710
O2088       O  0.50599747  0.20525497  0.61348729    -0.79870
O2089       O  0.54508178  0.27897078  0.62082289    -0.93290
Zr2090     Zr  0.95564670  0.19222103  0.49203223     2.64680
O2091       O  0.95382369  0.15239709  0.53624123    -0.98240
O2092       O  0.91789916  0.16006059  0.44590550    -0.80300
O2093       O  0.50278187  0.22079005  0.50855770    -0.83660
O2094       O  0.96528157  0.21821223  0.55377284    -2.18370
O2095       O  0.99858361  0.32698148  0.52890741    -0.67050
O2096       O  0.95316019  0.29480587  0.52771976    -0.51610
C2097       C  0.97445647  0.32088798  0.52352305     0.71720
O2098       O  0.98704996  0.26023629  0.34608973    -0.59960
O2099       O  0.52392824  0.25780194  0.36236778    -0.51930
C2100       C  0.50756908  0.26049012  0.33455056     0.73520
O2101       O  0.92035077  0.25213095  0.42336355    -0.71350
O2102       O  0.91550306  0.25264165  0.49738346    -0.50030
C2103       C  0.90796081  0.25178169  0.45667195     0.74910
O2104       O  0.55128475  0.32626657  0.43128530    -0.66680
O2105       O  0.56962961  0.30181154  0.44243751    -0.53880
C2106       C  0.57187777  0.32557210  0.44229657     0.73290
Zr2107     Zr  0.51858080  0.31036352  0.48806957     2.77540
O2108       O  0.52827877  0.35449407  0.44626644    -0.97430
O2109       O  0.55626468  0.33804396  0.53801337    -0.78250
Zr2110     Zr  0.96229731  0.25551521  0.40974671     2.70070
O2111       O  0.96731983  0.29667747  0.36455146    -0.79500
O2112       O  0.93031932  0.22431458  0.35602254    -0.98580
Zr2113     Zr  0.52486249  0.25387633  0.44443841     2.21500
Zr2114     Zr  0.94914987  0.24832527  0.53378146     2.11130
O2115       O  0.97228856  0.28165379  0.46949671    -2.47270
O2116       O  0.50930419  0.28454698  0.42636332    -0.79290
O2117       O  0.99666492  0.27724694  0.55150735    -0.71490
O2118       O  0.97716463  0.22486548  0.42749385    -2.32440
O2119       O  0.53399089  0.28036464  0.50647123    -2.28650
O2120       O  0.93997170  0.22202379  0.47235104    -0.73250
H2121       H  0.95756483  0.20642198  0.58166111     0.78750
H2122       H  0.97395075  0.21494160  0.40208550     0.79840
H2123       H  0.96587735  0.29347227  0.45865502     0.82060
H2124       H  0.55293320  0.29185387  0.51505906     0.79670
H2125       H  0.92485327  0.16684335  0.41499561     0.42710
H2126       H  0.92159852  0.20488793  0.37178003     0.41680
H2127       H  0.98506386  0.31304476  0.37385893     0.41350
H2128       H  0.01209325  0.34896463  0.42784143     0.39290
H2129       H  0.54794587  0.33147471  0.56800764     0.42420
H2130       H  0.56103471  0.29391716  0.60238020     0.37200
H2131       H  0.50746094  0.19471341  0.59201089     0.43320
H2132       H  0.95213957  0.15440924  0.56746908     0.39730
H2133       H  0.52868912  0.36600812  0.46805938     0.44650
H2134       H  0.55133618  0.26792899  0.63898679     0.43380
H2135       H  0.93587141  0.13544515  0.52902152     0.43510
H2136       H  0.91572485  0.22775253  0.35256270     0.43870
O2137       O  0.67495559  0.43679315  0.05841898    -0.75000
O2138       O  0.66722427  0.42664944  0.98658513    -0.53910
C2139       C  0.65965254  0.42236010  0.02695777     0.78730
O2140       O  0.74719640  0.07509842  0.02457804    -0.59600
O2141       O  0.78619910  0.08305116  0.05878119    -0.52630
C2142       C  0.76792820  0.08872068  0.04994468     0.70740
O2143       O  0.67499001  0.00742788  0.95977416    -0.74160
O2144       O  0.66457821  0.46759871  0.93098892    -0.54720
C2145       C  0.65795743  0.48429855  0.94123237     0.76750
O2146       O  0.74359332  0.50125887  0.13330604    -0.59300
O2147       O  0.78703580  0.04095872  0.11816785    -0.52420
C2148       C  0.76695610  0.02337977  0.14509561     0.73340
Zr2149     Zr  0.72188826  0.47537504  0.06976966     2.54710
O2150       O  0.69010497  0.47134329  0.12087186    -0.79870
O2151       O  0.72335893  0.43804828  0.11595854    -0.93290
Zr2152     Zr  0.72281602  0.03427050  0.98406783     2.64680
O2153       O  0.69059625  0.03681242  0.02429640    -0.98240
O2154       O  0.72815031  0.06978125  0.92370839    -0.80300
O2155       O  0.70192136  0.48563628  0.00604634    -0.83660
O2156       O  0.74276178  0.02429824  0.04870154    -2.18370
O2157       O  0.82175382  0.00403713  0.02758055    -0.67050
O2158       O  0.83254954  0.04445278  0.05343062    -0.51610
C2159       C  0.83906371  0.02728880  0.04478870     0.71720
O2160       O  0.74853663  0.00843624  0.84712956    -0.59960
O2161       O  0.70688605  0.46870478  0.86572825    -0.51930
C2162       C  0.72589141  0.48603744  0.83733154     0.73520
O2163       O  0.81852828  0.07381872  0.91844951    -0.71350
O2164       O  0.82773410  0.08478309  0.99052954    -0.50030
C2165       C  0.83383716  0.08876362  0.94902771     0.74910
O2166       O  0.75456944  0.44204179  0.94872512    -0.66680
O2167       O  0.71155740  0.42925458  0.92742671    -0.53880
C2168       C  0.73173739  0.42643163  0.92930686     0.73290
Zr2169     Zr  0.77422501  0.47744187  0.99890809     2.77540
O2170       O  0.80413404  0.46997943  0.96175456    -0.97430
O2171       O  0.76562831  0.43994013  0.05789558    -0.78250
Zr2172     Zr  0.77303649  0.03406750  0.91101648     2.70070
O2173       O  0.80336661  0.03380731  0.86224590    -0.79500
O2174       O  0.77254282  0.07149769  0.86320464    -0.98580
Zr2175     Zr  0.70630419  0.46609639  0.94631564     2.21500
Zr2176     Zr  0.79036240  0.04548616  0.03649547     2.11130
O2177       O  0.79432690  0.02570452  0.97560960    -2.47270
O2178       O  0.75326122  0.48591764  0.93393217    -0.79290
O2179       O  0.76914921  0.49589195  0.05943367    -0.71490
O2180       O  0.72672060  0.01515828  0.92345094    -2.32440
O2181       O  0.72674324  0.45542668  0.01131157    -2.28650
O2182       O  0.76969015  0.05496997  0.97041715    -0.73250
H2183       H  0.74040997  0.03200874  0.07271795     0.78750
H2184       H  0.71798553  0.01815855  0.89699670     0.79840
H2185       H  0.81313204  0.03379450  0.96901295     0.82060
H2186       H  0.71757178  0.43510921  0.01858333     0.79670
H2187       H  0.71164828  0.05945108  0.90499686     0.42710
H2188       H  0.78032694  0.08723403  0.88187565     0.41680
H2189       H  0.80726771  0.02033143  0.87878832     0.41350
H2190       H  0.81948823  0.98917393  0.94981506     0.39290
H2191       H  0.77837296  0.45007683  0.08210018     0.42420
H2192       H  0.70946152  0.42040212  0.10282561     0.37200
H2193       H  0.68455012  0.48371808  0.10546816     0.43320
H2194       H  0.69531005  0.03518905  0.05617739     0.39730
H2195       H  0.81228903  0.46337262  0.98573579     0.44650
H2196       H  0.71539832  0.43620956  0.14468613     0.43380
H2197       H  0.69568927  0.05655511  0.01709249     0.43510
H2198       H  0.78673880  0.07834031  0.84063331     0.43870
O2199       O  0.75416238  0.07248494  0.54468238    -0.75000
O2200       O  0.70990441  0.03670325  0.56050082    -0.53910
C2201       C  0.73052323  0.06338247  0.55785465     0.78730
O2202       O  0.73696221  0.01387801  0.34901176    -0.59600
O2203       O  0.77756237  0.01834293  0.36119498    -0.52630
C2204       C  0.75936240  0.01832475  0.33526747     0.70740
O2205       O  0.67161335  0.50578935  0.44407643    -0.74160
O2206       O  0.66753549  0.49741873  0.52011548    -0.54720
C2207       C  0.66049787  0.50298989  0.48128806     0.76750
O2208       O  0.80266078  0.07626424  0.43985487    -0.59300
O2209       O  0.82198371  0.05302093  0.44073313    -0.52420
C2210       C  0.82371365  0.07601597  0.44454846     0.73340
Zr2211     Zr  0.77057880  0.05512022  0.49904073     2.54710
O2212       O  0.78026078  0.10147462  0.46955522    -0.79870
O2213       O  0.80972079  0.07985253  0.54798466    -0.93290
Zr2214     Zr  0.70954035  0.50495057  0.41698767     2.64680
O2215       O  0.71306435  0.04476687  0.37131706    -0.98240
O2216       O  0.67220166  0.47030458  0.37298222    -0.80300
O2217       O  0.72329709  0.02765946  0.48379576    -0.83660
O2218       O  0.75893779  0.03456236  0.43085978    -2.18370
O2219       O  0.80635828  0.49017988  0.54149978    -0.67050
O2220       O  0.80930676  0.50167481  0.46651664    -0.51610
C2221       C  0.81752675  0.49539424  0.50328423     0.71720
O2222       O  0.67803465  0.41906126  0.54587767    -0.59960
O2223       O  0.65806127  0.44166201  0.54581177    -0.51930
C2224       C  0.65652098  0.41867119  0.54168376     0.73520
O2225       O  0.72181919  0.43242949  0.41667373    -0.71350
O2226       O  0.76743466  0.46100540  0.41574417    -0.50030
C2227       C  0.74486682  0.43652770  0.41148201     0.74910
O2228       O  0.74522326  0.48382986  0.63489928    -0.66680
O2229       O  0.70633946  0.48326803  0.62380630    -0.53880
C2230       C  0.72472728  0.48291050  0.64874774     0.73290
Zr2231     Zr  0.76604957  0.48821960  0.56467447     2.77540
O2232       O  0.75812289  0.44426500  0.60396176    -0.97430
O2233       O  0.80399575  0.01833136  0.61506075    -0.78250
Zr2234     Zr  0.70766799  0.43920486  0.48311240     2.70070
O2235       O  0.71388401  0.40129177  0.51040251    -0.79500
O2236       O  0.66626569  0.40339934  0.44748191    -0.98580
Zr2237     Zr  0.70205288  0.49032842  0.54411053     2.21500
Zr2238     Zr  0.77400395  0.50482930  0.43780621     2.11130
O2239       O  0.75481374  0.46701044  0.49740075    -2.47270
O2240       O  0.71838916  0.46014694  0.55091872    -0.79290
O2241       O  0.78686703  0.02595896  0.50902097    -0.71490
O2242       O  0.69022927  0.46806930  0.47620943    -2.32440
O2243       O  0.75040550  0.01881529  0.55944108    -2.28650
O2244       O  0.72640397  0.47594578  0.42332404    -0.73250
H2245       H  0.76537086  0.04788257  0.40410056     0.78750
H2246       H  0.67088297  0.45682319  0.47011610     0.79840
H2247       H  0.76175156  0.45531864  0.49853196     0.82060
H2248       H  0.75403186  0.02770169  0.58623741     0.79670
H2249       H  0.65564754  0.46214922  0.39093216     0.42710
H2250       H  0.66667578  0.41253310  0.41702489     0.41680
H2251       H  0.71513148  0.40123444  0.54318953     0.41350
H2252       H  0.76373112  0.43690025  0.58271407     0.39290
H2253       H  0.81387658  0.03730340  0.59755452     0.42420
H2254       H  0.80189979  0.07411564  0.57826755     0.37200
H2255       H  0.77372449  0.09939503  0.43830198     0.43320
H2256       H  0.73270497  0.05984402  0.36696264     0.39730
H2257       H  0.77231691  0.45050583  0.62753515     0.44650
H2258       H  0.81609331  0.10004392  0.54139940     0.43380
H2259       H  0.70647686  0.03793922  0.34170234     0.43510
H2260       H  0.66933028  0.38865325  0.44324572     0.43870
O2261       O  0.74863861  0.18771991  0.08889244    -0.75000
O2262       O  0.75236763  0.18058541  0.01796708    -0.53910
C2263       C  0.75229176  0.17513751  0.06059777     0.78730
O2264       O  0.66538919  0.23478583  0.02428160    -0.59600
O2265       O  0.69407895  0.28209238  0.01243671    -0.52630
C2266       C  0.66964778  0.25885050  0.01163270     0.70740
O2267       O  0.68012546  0.18790373  0.94307755    -0.74160
O2268       O  0.70300093  0.16945914  0.96950104    -0.54720
C2269       C  0.68001558  0.16672432  0.95963718     0.76750
O2270       O  0.73791434  0.25132361  0.14371305    -0.59300
O2271       O  0.73585465  0.28921890  0.11541494    -0.52420
C2272       C  0.73617049  0.27223866  0.14827003     0.73340
Zr2273     Zr  0.74143550  0.22669787  0.08772056     2.54710
O2274       O  0.70176229  0.18823764  0.13044774    -0.79870
O2275       O  0.77344128  0.23267980  0.14784769    -0.93290
Zr2276     Zr  0.69011877  0.22043422  0.99319808     2.64680
O2277       O  0.65580765  0.17938317  0.04152061    -0.98240
O2278       O  0.65925545  0.22249104  0.93758440    -0.80300
O2279       O  0.71699913  0.20369919  0.02458817    -0.83660
O2280       O  0.71349061  0.24254066  0.05749589    -2.18370
O2281       O  0.80728170  0.32073366  0.05640366    -0.67050
O2282       O  0.78569876  0.34045299  0.03116614    -0.51610
C2283       C  0.80838196  0.34244047  0.03764062     0.71720
O2284       O  0.75182485  0.25611109  0.85927176    -0.59960
O2285       O  0.75135101  0.21668032  0.88799326    -0.51930
C2286       C  0.75140462  0.23380983  0.85521870     0.73520
O2287       O  0.74084547  0.31972412  0.91802432    -0.71350
O2288       O  0.73749169  0.32716325  0.98874438    -0.50030
C2289       C  0.73663267  0.33193252  0.94636559     0.74910
O2290       O  0.82437833  0.26496701  0.00526452    -0.66680
O2291       O  0.79587588  0.22324713  0.97513811    -0.53880
C2292       C  0.81922084  0.24235143  0.99189550     0.73290
Zr2293     Zr  0.80145000  0.28780309  0.00907678     2.77540
O2294       O  0.83334474  0.32076205  0.95014550    -0.97430
O2295       O  0.84279964  0.30643835  0.05397153    -0.78250
Zr2296     Zr  0.74948304  0.28189003  0.91500130     2.70070
O2297       O  0.78700838  0.32050522  0.86871061    -0.79500
O2298       O  0.71609311  0.27456208  0.85628065    -0.98580
Zr2299     Zr  0.74963592  0.21567828  0.96910380     2.21500
Zr2300     Zr  0.74118589  0.29245690  0.03392524     2.11130
O2301       O  0.77377358  0.30358054  0.97773377    -2.47270
O2302       O  0.77775206  0.26585315  0.94474286    -0.79290
O2303       O  0.76961165  0.27644922  0.06472690    -0.71490
O2304       O  0.72262544  0.23302754  0.93813394    -2.32440
O2305       O  0.77351913  0.23887710  0.03334948    -2.28650
O2306       O  0.71759305  0.26938716  0.97035501    -0.73250
H2307       H  0.70058977  0.23830431  0.07972990     0.78750
H2308       H  0.71469459  0.22602176  0.91002177     0.79840
H2309       H  0.78477324  0.32328721  0.96563513     0.82060
H2310       H  0.78443568  0.23245936  0.04767826     0.79670
H2311       H  0.66840256  0.22715624  0.90873725     0.42710
H2312       H  0.71516689  0.29133643  0.85354023     0.41680
H2313       H  0.79732274  0.31277212  0.86162935     0.41350
H2314       H  0.82543799  0.33088537  0.93481307     0.39290
H2315       H  0.83670830  0.29412068  0.08276429     0.42420
H2316       H  0.78845112  0.23382262  0.13358914     0.37200
H2317       H  0.69555444  0.17114684  0.11599604     0.43320
H2318       H  0.65399741  0.18721076  0.06701730     0.39730
H2319       H  0.84973240  0.33508839  0.96580736     0.44650
H2320       H  0.76403040  0.21415168  0.16672400     0.43380
H2321       H  0.66474134  0.16978970  0.05450267     0.43510
H2322       H  0.72492244  0.27684688  0.82826857     0.43870
O2323       O  0.68330129  0.18350444  0.42827413    -0.75000
O2324       O  0.66296035  0.20668426  0.42406000    -0.53910
C2325       C  0.66230252  0.18395188  0.42115993     0.78730
O2326       O  0.72686862  0.23352443  0.64653114    -0.59600
O2327       O  0.76576173  0.23550407  0.64058740    -0.52630
C2328       C  0.74701504  0.23274802  0.66386913     0.70740
O2329       O  0.66880201  0.24189220  0.55888811    -0.74160
O2330       O  0.66540969  0.24843691  0.48302381    -0.54720
C2331       C  0.65763695  0.24548269  0.52319631     0.76750
O2332       O  0.72276306  0.16642357  0.54085678    -0.59300
O2333       O  0.76443721  0.19609468  0.57200103    -0.52420
C2334       C  0.74415239  0.17107878  0.56190820     0.73340
Zr2335     Zr  0.71009851  0.19414399  0.49432979     2.54710
O2336       O  0.66641652  0.15676774  0.52865079    -0.79870
O2337       O  0.71521337  0.16232638  0.45758997    -0.93290
Zr2338     Zr  0.70664576  0.23839549  0.57523877     2.64680
O2339       O  0.66871960  0.19406398  0.61190185    -0.98240
O2340       O  0.70700594  0.26854451  0.62455760    -0.80300
O2341       O  0.68985248  0.21782738  0.50698856    -0.83660
O2342       O  0.72510712  0.21287103  0.56351613    -2.18370
O2343       O  0.80607621  0.25692518  0.45109734    -0.67050
O2344       O  0.81100475  0.24947964  0.52641003    -0.51610
C2345       C  0.81759201  0.25261028  0.48561697     0.71720
O2346       O  0.74826253  0.33063280  0.46547816    -0.59960
O2347       O  0.71220809  0.30271518  0.42171077    -0.51930
C2348       C  0.73069653  0.32728216  0.43514290     0.73520
O2349       O  0.78604906  0.30775343  0.58418840    -0.71350
O2350       O  0.81240023  0.29210846  0.58385349    -0.50030
C2351       C  0.80968700  0.31256149  0.58752945     0.74910
O2352       O  0.75328417  0.27253183  0.36022765    -0.66680
O2353       O  0.71063528  0.26266251  0.36332023    -0.53880
C2354       C  0.73191839  0.26997104  0.34126632     0.73290
Zr2355     Zr  0.77079691  0.26398659  0.43164857     2.77540
O2356       O  0.81030061  0.30894390  0.39987798    -0.97430
O2357       O  0.77226644  0.23723511  0.37779239    -0.78250
Zr2358     Zr  0.76616052  0.30730712  0.51163955     2.70070
O2359       O  0.80861775  0.34238532  0.47168659    -0.79500
O2360       O  0.76567248  0.34304629  0.54614044    -0.98580
Zr2361     Zr  0.70274957  0.25419979  0.44505609     2.21500
Zr2362     Zr  0.77343766  0.24539113  0.55992565     2.11130
O2363       O  0.78696693  0.28365463  0.49997451    -2.47270
O2364       O  0.75085091  0.28787275  0.44331528    -0.79290
O2365       O  0.75776001  0.22646962  0.49011890    -0.71490
O2366       O  0.71862131  0.27468016  0.51443526    -2.32680
O2367       O  0.72385051  0.23068360  0.43371744    -2.28650
O2368       O  0.75387482  0.27075549  0.57120775    -0.73250
H2369       H  0.71988738  0.19790840  0.58782765     0.78750
H2370       H  0.71112646  0.28526667  0.51888749     0.79840
H2371       H  0.80659671  0.29667230  0.49888674     0.82060
H2372       H  0.72007139  0.22468380  0.40428789     0.79670
H2373       H  0.72164421  0.28809812  0.61266743     0.42710
H2374       H  0.74623019  0.33620746  0.54680519     0.41680
H2375       H  0.80294665  0.34952205  0.44440587     0.41350
H2376       H  0.82566962  0.31243685  0.41994705     0.39290
H2377       H  0.76058655  0.21715605  0.39088116     0.42420
H2378       H  0.71557740  0.16816514  0.42519196     0.37200
H2379       H  0.65361299  0.16216119  0.51802416     0.43320
H2380       H  0.67589926  0.18220069  0.62069030     0.39730
H2381       H  0.81405571  0.30450301  0.37212430     0.44650
H2382       H  0.69793054  0.14335446  0.46266049     0.43380
H2383       H  0.66660690  0.19916778  0.64040886     0.43510
H2384       H  0.77030749  0.34098198  0.57794735     0.43870
C2385       C  0.72571879  0.22403125  0.73713517    -0.11980
C2386       C  0.74791537  0.22888995  0.71412751     0.05030
C2387       C  0.76968326  0.23038215  0.74005798    -0.07260
C2388       C  0.76966610  0.22956107  0.78696911    -0.08010
C2389       C  0.74829188  0.22693057  0.80875858    -0.02560
C2390       C  0.72550778  0.22276588  0.78357142     0.04260
N2391       N  0.70200496  0.21746967  0.80472816     0.66760
H2392       H  0.70809025  0.22129298  0.71890386     0.15660
H2393       H  0.78718508  0.23266345  0.80612668     0.15370
N2394       N  0.79227405  0.23348245  0.71984589     0.74470
O2395       O  0.68822500  0.22631859  0.78503012    -0.38980
O2396       O  0.69293835  0.20088142  0.84040349    -0.38920
O2397       O  0.80837891  0.25596219  0.69523850    -0.39630
O2398       O  0.79934968  0.21680193  0.73390103    -0.39690
C2399       C  0.75495024  0.27705618  0.27059920    -0.11980
C2400       C  0.73294955  0.27456446  0.29060435     0.05030
C2401       C  0.71314033  0.27514607  0.26156039    -0.07260
C2402       C  0.71501000  0.27600924  0.21460765    -0.08010
C2403       C  0.73660616  0.27720476  0.19574085    -0.02560
C2404       C  0.75714084  0.27856850  0.22449133     0.04260
N2405       N  0.78030572  0.28089599  0.20744127     0.66760
H2406       H  0.77094807  0.27748636  0.29104679     0.15660
H2407       H  0.69922185  0.27511488  0.19283812     0.15370
N2408       N  0.69135247  0.27518296  0.27860447     0.74470
O2409       O  0.79188169  0.29684847  0.17206654    -0.38980
O2410       O  0.79064175  0.26883258  0.22959495    -0.38920
O2411       O  0.69642778  0.29210296  0.30621211    -0.39630
O2412       O  0.66803249  0.26197101  0.26072578    -0.39690
C2413       C  0.76042297  0.38013488  0.42269294    -0.11980
C2414       C  0.73439563  0.35514013  0.41635235     0.05030
C2415       C  0.71390829  0.35885736  0.39730823    -0.07260
C2416       C  0.71904405  0.38638757  0.39133304    -0.08010
C2417       C  0.74396665  0.41059317  0.40424635    -0.02560
C2418       C  0.76515805  0.40714729  0.41801563     0.04260
N2419       N  0.79085842  0.42999786  0.43238892     0.66760
H2420       H  0.77729048  0.37869854  0.43486961     0.15660
H2421       H  0.70251650  0.38845530  0.37943995     0.15370
N2422       N  0.68760154  0.33540851  0.38540615     0.74470
O2423       O  0.79315573  0.43550243  0.47199929    -0.38980
O2424       O  0.81199190  0.43783919  0.41159553    -0.38920
O2425       O  0.67432463  0.31356389  0.41283492    -0.39630
O2426       O  0.67566779  0.33843292  0.35089992    -0.39690
C2427       C  0.74291179  0.13502915  0.52662494    -0.11980
C2428       C  0.74478089  0.14504272  0.56733800     0.05030
C2429       C  0.73824019  0.12574385  0.60689940    -0.07260
C2430       C  0.73137286  0.09777075  0.60370574    -0.08010
C2431       C  0.72829047  0.08768678  0.56216934    -0.02560
C2432       C  0.73338088  0.10676780  0.52299835     0.04260
N2433       N  0.72937229  0.09799974  0.47888201     0.66760
H2434       H  0.74727668  0.14934266  0.49633045     0.15660
H2435       H  0.72871039  0.08383700  0.63375099     0.15370
N2436       N  0.73863557  0.13388172  0.65006497     0.74470
O2437       O  0.73834702  0.11625045  0.44495712    -0.38980
O2438       O  0.71455848  0.07208802  0.47292263    -0.38920
O2439       O  0.74241692  0.15742818  0.65383941    -0.39630
O2440       O  0.73525752  0.11744965  0.68503936    -0.39690
C2441       C  0.71741976  0.00088844  0.76169345    -0.11980
C2442       C  0.72097928  0.48135356  0.78998224     0.05030
C2443       C  0.72373085  0.46156191  0.77244735    -0.07260
C2444       C  0.72491192  0.46263750  0.72611325    -0.08010
C2445       C  0.72278382  0.48245503  0.69700867    -0.02560
C2446       C  0.71801455  0.00162017  0.71536041     0.04260
N2447       N  0.71753183  0.02363476  0.68712463     0.66760
H2448       H  0.71639702  0.01672540  0.77524778     0.15660
H2449       H  0.72720518  0.44765804  0.71250520     0.15370
N2450       N  0.72555724  0.44048704  0.80077569     0.74470
O2451       O  0.70379138  0.03235513  0.69828680    -0.38980
O2452       O  0.73412912  0.03750276  0.65527097    -0.38920
O2453       O  0.71012857  0.42727484  0.83410942    -0.39630
O2454       O  0.73838125  0.43117342  0.78788014    -0.39690
C2455       C  0.74353476  0.02205456  0.25771749    -0.11980
C2456       C  0.76402070  0.02337989  0.28603563     0.05030
C2457       C  0.78783004  0.02908562  0.26626412    -0.07260
C2458       C  0.78971521  0.03184605  0.21957577    -0.08010
C2459       C  0.76827592  0.02856816  0.19198890    -0.02560
C2460       C  0.74532398  0.02462964  0.21137010     0.04260
N2461       N  0.72339696  0.02280250  0.18447417     0.66760
H2462       H  0.72339307  0.51896967  0.26921075     0.15660
H2463       H  0.80719444  0.03453902  0.20504405     0.15370
N2464       N  0.80984554  0.03101695  0.29255024     0.74470
O2465       O  0.69781774  0.50827652  0.19579546    -0.38980
O2466       O  0.72846098  0.03909454  0.14869156    -0.38920
O2467       O  0.80692782  0.00868026  0.31255086    -0.39630
O2468       O  0.83357576  0.05330313  0.28700467    -0.39690
C2469       C  0.74989228  0.37743805  0.90219921    -0.11980
C2470       C  0.73078991  0.35351323  0.93011674     0.05030
C2471       C  0.70899261  0.35313515  0.94734431    -0.07260
C2472       C  0.70638304  0.37570795  0.93430011    -0.08010
C2473       C  0.72804114  0.40131653  0.91410613    -0.02560
C2474       C  0.75009360  0.40227317  0.89671013     0.04260
N2475       N  0.77395909  0.42857074  0.87795384     0.66760
H2476       H  0.76665562  0.37798191  0.88936156     0.15660
H2477       H  0.69015244  0.37533967  0.94898920     0.15370
N2478       N  0.69165461  0.33275277  0.98295257     0.74470
O2479       O  0.79645405  0.43112540  0.87723716    -0.38980
O2480       O  0.77296992  0.44955745  0.86276895    -0.38920
O2481       O  0.70216865  0.33306180  0.02094644    -0.39630
O2482       O  0.66671243  0.32364187  0.98134066    -0.39690
C2483       C  0.74182245  0.10364987  0.08132073    -0.11980
C2484       C  0.76791944  0.11099157  0.07053547     0.05030
C2485       C  0.79007744  0.13986880  0.07039398    -0.07260
C2486       C  0.78435259  0.16035687  0.07360821    -0.08010
C2487       C  0.75754978  0.15303755  0.07673586    -0.02560
C2488       C  0.73602796  0.12407290  0.08270227     0.04260
N2489       N  0.70801262  0.11493142  0.08575825     0.66760
H2490       H  0.72503716  0.08147781  0.08438455     0.15660
H2491       H  0.80077798  0.18259078  0.06934131     0.15370
N2492       N  0.81806335  0.14937674  0.06562150     0.74470
O2493       O  0.68890604  0.09012458  0.07821528    -0.38980
O2494       O  0.70204894  0.13083403  0.09815096    -0.38920
O2495       O  0.82431840  0.13599571  0.04574641    -0.39630
O2496       O  0.83701448  0.17211757  0.08038097    -0.39690
C2497       C  0.87670133  0.12457176  0.52411798    -0.11980
C2498       C  0.87848963  0.15021865  0.51040742     0.05030
C2499       C  0.86416836  0.15099503  0.47123313    -0.07260
C2500       C  0.84946123  0.12737243  0.44730563    -0.08010
C2501       C  0.84796121  0.10212849  0.46074394    -0.02560
C2502       C  0.86261625  0.10118439  0.49912132     0.04260
N2503       N  0.86373158  0.07697941  0.51295913     0.66760
H2504       H  0.88789923  0.12326226  0.55333136     0.15660
H2505       H  0.83820888  0.12849587  0.41797704     0.15370
N2506       N  0.86561648  0.17591236  0.45262381     0.74470
O2507       O  0.87055284  0.06764700  0.48520066    -0.38980
O2508       O  0.86340539  0.06869545  0.55390133    -0.38920
O2509       O  0.88708742  0.19553084  0.43243980    -0.39630
O2510       O  0.84365652  0.17390361  0.44202478    -0.39690
C2511       C  0.60974685  0.34531634  0.49964933    -0.11980
C2512       C  0.59527368  0.35031185  0.46492150     0.05030
C2513       C  0.59965991  0.37768264  0.45873574    -0.07260
C2514       C  0.61705071  0.39820125  0.48805207    -0.08010
C2515       C  0.63204678  0.39343557  0.52196188    -0.02560
C2516       C  0.62823029  0.36635779  0.52738853     0.04260
N2517       N  0.64321189  0.35983573  0.56051770     0.66760
H2518       H  0.60595216  0.32440671  0.50656891     0.15660
H2519       H  0.62069595  0.41908104  0.48176027     0.15370
N2520       N  0.58771758  0.38566679  0.42163796     0.74470
O2521       O  0.64715803  0.36775533  0.59882085    -0.38980
O2522       O  0.65081873  0.34432115  0.55264208    -0.38920
O2523       O  0.58308589  0.40429160  0.42437334    -0.39630
O2524       O  0.58566062  0.37747459  0.38411048    -0.39690
C2525       C  0.86178751  0.22653445  0.48070529    -0.11980
C2526       C  0.88186605  0.24802775  0.45068776     0.05030
C2527       C  0.87981355  0.27019897  0.43006309    -0.07260
C2528       C  0.85866805  0.27147173  0.44316385    -0.08010
C2529       C  0.83998405  0.25111564  0.47597322    -0.02560
C2530       C  0.84092997  0.22787403  0.49378929     0.04260
N2531       N  0.82141550  0.20583547  0.52560156     0.66760
H2532       H  0.86414490  0.21030587  0.49836084     0.15660
H2533       H  0.85693238  0.28866198  0.42821643     0.15370
N2534       N  0.89978512  0.29235642  0.39867995     0.74470
O2535       O  0.80944459  0.18022837  0.51875228    -0.38980
O2536       O  0.82120230  0.21134980  0.56434686    -0.38920
O2537       O  0.91012499  0.28667274  0.37081158    -0.39630
O2538       O  0.90458544  0.31691798  0.39496288    -0.39690
C2539       C  0.59902967  0.24434799  0.56700296    -0.11980
C2540       C  0.59412431  0.25761058  0.52878167     0.05030
C2541       C  0.61206418  0.26947746  0.49216737    -0.07260
C2542       C  0.63199908  0.26457367  0.49210813    -0.08010
C2543       C  0.63562372  0.24904006  0.52801120    -0.02560
C2544       C  0.61980409  0.23984850  0.56714625     0.04260
N2545       N  0.62311790  0.22448388  0.60578298     0.66760
H2546       H  0.58533464  0.23534560  0.59519542     0.15660
H2547       H  0.64429795  0.27248522  0.46258265     0.15370
N2548       N  0.60908388  0.28455175  0.45280934     0.74470
O2549       O  0.62205694  0.22996697  0.64415706    -0.38980
O2550       O  0.62180677  0.20218108  0.60202657    -0.38920
O2551       O  0.62452879  0.31130310  0.44766911    -0.39630
O2552       O  0.59793603  0.27164750  0.41885203    -0.39690
C2553       C  0.95997636  0.22082051  0.76670399    -0.11980
C2554       C  0.98457463  0.24428091  0.78117837     0.05030
C2555       C  0.00063634  0.26850491  0.75074703    -0.07260
C2556       C  0.99157582  0.26900700  0.70681008    -0.08010
C2557       C  0.96787882  0.24519247  0.69122461    -0.02560
C2558       C  0.95149884  0.22072489  0.72166592     0.04260
N2559       N  0.92682888  0.19576340  0.70754726     0.66760
H2560       H  0.94720739  0.20274663  0.79080959     0.15660
H2561       H  0.50435629  0.28717293  0.68296325     0.15370
N2562       N  0.52662934  0.29214576  0.76316678     0.74470
O2563       O  0.91636294  0.17214868  0.73141237    -0.38980
O2564       O  0.91408061  0.19755952  0.67327195    -0.38920
O2565       O  0.54145162  0.28808360  0.79091491    -0.39630
O2566       O  0.53652977  0.31663224  0.74256414    -0.39690
C2567       C  0.99494752  0.27095366  0.21132737    -0.11980
C2568       C  0.50258729  0.25510438  0.19349629     0.05030
C2569       C  0.51737598  0.24611694  0.22124794    -0.07260
C2570       C  0.52014268  0.24905523  0.26724210    -0.08010
C2571       C  0.51068916  0.26312492  0.28540776    -0.02560
C2572       C  0.99990480  0.27615269  0.25604780     0.04260
N2573       N  0.99433775  0.29504784  0.27107308     0.66760
H2574       H  0.98538968  0.27983719  0.19015187     0.15660
H2575       H  0.52962891  0.24025637  0.28886046     0.15370
N2576       N  0.53127396  0.23592154  0.20291272     0.74470
O2577       O  0.01100529  0.31316063  0.29655394    -0.38980
O2578       O  0.97453744  0.29593539  0.25502173    -0.38920
O2579       O  0.54721600  0.25055166  0.17041992    -0.39630
O2580       O  0.53211646  0.21593883  0.22427402    -0.39690
C2581       C  0.89230672  0.16154706  0.91052166    -0.11980
C2582       C  0.91228439  0.15664391  0.90346682     0.05030
C2583       C  0.90473967  0.12849356  0.90564853    -0.07260
C2584       C  0.87840912  0.10640950  0.91945754    -0.08010
C2585       C  0.86043282  0.11226209  0.93375555    -0.02560
C2586       C  0.86691312  0.13993899  0.92821851     0.04260
N2587       N  0.84859430  0.14654186  0.94162787     0.66760
H2588       H  0.89688044  0.18257095  0.90379751     0.15660
H2589       H  0.87236695  0.08463078  0.92113551     0.15370
N2590       N  0.92301337  0.12187258  0.89332961     0.74470
O2591       O  0.85787337  0.16910320  0.95879614    -0.38980
O2592       O  0.82312128  0.12990311  0.93692560    -0.38920
O2593       O  0.94051550  0.12293432  0.92104554    -0.39630
O2594       O  0.91758304  0.10891654  0.85959654    -0.39690
C2595       C  0.58262332  0.37263406  0.02466215    -0.11980
C2596       C  0.57797572  0.35490579  0.06431360     0.05030
C2597       C  0.59995372  0.36095667  0.09329916    -0.07260
C2598       C  0.62622592  0.38397918  0.08113208    -0.08010
C2599       C  0.63130223  0.39950986  0.03876265    -0.02560
C2600       C  0.60907584  0.39363438  0.01002937     0.04260
N2601       N  0.61257867  0.40671574  0.96487186     0.66760
H2602       H  0.56600558  0.36684344  0.00114114     0.15660
H2603       H  0.64304505  0.38818622  0.10339845     0.15370
N2604       N  0.59641366  0.34203428  0.13239423     0.74470
O2605       O  0.62421496  0.40228100  0.93742489    -0.38980
O2606       O  0.59681859  0.41405979  0.94974943    -0.38920
O2607       O  0.59490523  0.31960220  0.12874457    -0.39630
O2608       O  0.60125254  0.35080053  0.17015364    -0.39690
C2609       C  0.88796143  0.25411704  0.98104322    -0.11980
C2610       C  0.89473737  0.25012935  0.02589740     0.05030
C2611       C  0.87508652  0.24102733  0.05888285    -0.07260
C2612       C  0.84943916  0.23605168  0.04572102    -0.08010
C2613       C  0.84232445  0.23902315  0.00057257    -0.02560
C2614       C  0.86223099  0.24862538  0.96780100     0.04260
N2615       N  0.85705809  0.25354004  0.92125110     0.66760
H2616       H  0.90279298  0.26070252  0.95558887     0.15660
H2617       H  0.83517641  0.23108896  0.07126006     0.15370
N2618       N  0.88082108  0.23721801  0.10550621     0.74470
O2619       O  0.87665606  0.26999274  0.89466785    -0.38980
O2620       O  0.83313583  0.23973951  0.90569827    -0.38920
O2621       O  0.90509389  0.24965626  0.11957548    -0.39630
O2622       O  0.86164956  0.22336680  0.13347439    -0.39690
C2623       C  0.61974776  0.23686829  0.01501133    -0.11980
C2624       C  0.64458363  0.25740177  0.99295199     0.05030
C2625       C  0.64289744  0.26992022  0.94974465    -0.07260
C2626       C  0.61752620  0.26482248  0.93400357    -0.08010
C2627       C  0.59303719  0.24514484  0.95721126    -0.02560
C2628       C  0.59434988  0.23021174  0.99746215     0.04260
N2629       N  0.57031249  0.20917732  0.02249183     0.66760
H2630       H  0.62002035  0.22557667  0.04665801     0.15660
H2631       H  0.61674147  0.27627704  0.90296945     0.15370
N2632       N  0.66606053  0.28695156  0.92059898     0.74470
O2633       O  0.56646769  0.18549704  0.03686845    -0.38980
O2634       O  0.55657157  0.21637326  0.03858045    -0.38920
O2635       O  0.68334432  0.28095880  0.92019201    -0.39630
O2636       O  0.66680950  0.30469406  0.88992847    -0.39690
C2637       C  0.87802220  0.38271374  0.60959552    -0.11980
C2638       C  0.87578182  0.40256049  0.57978952     0.05030
C2639       C  0.85123062  0.39254270  0.55544144    -0.07260
C2640       C  0.83017395  0.36354920  0.56207949    -0.08010
C2641       C  0.83305719  0.34320843  0.58866154    -0.02560
C2642       C  0.85726846  0.35322217  0.61401189     0.04260
N2643       N  0.86117636  0.33424767  0.64445726     0.66760
H2644       H  0.89712800  0.39015214  0.62724173     0.15660
H2645       H  0.81181690  0.35644682  0.54312858     0.15370
N2646       N  0.84787890  0.41046571  0.52094204     0.74470
O2647       O  0.88493048  0.34119456  0.65578268    -0.38980
O2648       O  0.84109240  0.31227745  0.66455355    -0.38920
O2649       O  0.86746097  0.42927214  0.49588374    -0.39630
O2650       O  0.82431660  0.40458173  0.51085868    -0.39690
C2651       C  0.59410819  0.12181308  0.37817975    -0.11980
C2652       C  0.59449631  0.09838257  0.39918411     0.05030
C2653       C  0.61765099  0.10384131  0.42389163    -0.07260
C2654       C  0.63831146  0.13180260  0.43031387    -0.08010
C2655       C  0.63750183  0.15544337  0.41221207    -0.02560
C2656       C  0.61487855  0.15018069  0.38538391     0.04260
N2657       N  0.61170030  0.17258739  0.36718786     0.66760
H2658       H  0.57568469  0.11768753  0.36099727     0.15660
H2659       H  0.65509351  0.13482340  0.45140111     0.15370
N2660       N  0.61889117  0.08106455  0.44763395     0.74470
O2661       O  0.60131326  0.17188196  0.32894210    -0.38980
O2662       O  0.61389294  0.18954289  0.39221100    -0.38920
O2663       O  0.61011803  0.05883349  0.42980108    -0.39630
O2664       O  0.63027094  0.08379221  0.48540449    -0.39690
C2665       C  0.84545603  0.00180159  0.45311608    -0.11980
C2666       C  0.84176885  0.49520848  0.49675714     0.05030
C2667       C  0.86217911  0.50070221  0.52895507    -0.07260
C2668       C  0.88759537  0.50854833  0.51436769    -0.08010
C2669       C  0.88793135  0.00659884  0.46826511    -0.02560
C2670       C  0.86925211  0.00692721  0.43726945     0.04260
N2671       N  0.87456386  0.01379800  0.39027010     0.66760
H2672       H  0.83138193  0.00268477  0.42896844     0.15660
H2673       H  0.90322828  0.51214756  0.53894724     0.15370
N2674       N  0.85750331  0.49768341  0.57580115     0.74470
O2675       O  0.85651641  0.99833758  0.36324233    -0.38980
O2676       O  0.89491832  0.03782054  0.37559899    -0.38920
O2677       O  0.83590312  0.47605422  0.59319419    -0.39630
O2678       O  0.87446193  0.00513958  0.60322837    -0.39690
C2679       C  0.61323235  0.48394009  0.45909030    -0.11980
C2680       C  0.63651457  0.50409132  0.48083830     0.05030
C2681       C  0.63576370  0.01970783  0.50963954    -0.07260
C2682       C  0.61041857  0.01391561  0.51896165    -0.08010
C2683       C  0.58695127  0.99300809  0.49873767    -0.02560
C2684       C  0.58783140  0.47852331  0.46732330     0.04260
N2685       N  0.56395745  0.45526146  0.44882052     0.66760
H2686       H  0.61445768  0.47078343  0.43839743     0.15660
H2687       H  0.60928226  0.02679878  0.54038576     0.15370
N2688       N  0.65927794  0.04182749  0.53034912     0.74470
O2689       O  0.56454516  0.44973215  0.41024236    -0.38980
O2690       O  0.54440963  0.43701300  0.47427612    -0.38920
O2691       O  0.67076297  0.06686969  0.51133280    -0.39630
O2692       O  0.66255208  0.03804534  0.57178169    -0.39690
C2693       C  0.97006915  0.35003830  0.45870238    -0.11980
C2694       C  0.97288795  0.34561164  0.50534542     0.05030
C2695       C  0.98219544  0.36865923  0.53001828    -0.07260
C2696       C  0.98880215  0.39503622  0.50753370    -0.08010
C2697       C  0.98662634  0.39979315  0.46086926    -0.02560
C2698       C  0.97713895  0.37672896  0.43598355     0.04260
N2699       N  0.47520731  0.38048607  0.38721677     0.66760
H2700       H  0.96378981  0.33285620  0.43934873     0.15660
H2701       H  0.99534250  0.41205102  0.52731050     0.15370
N2702       N  0.98391529  0.36558570  0.57799525     0.74470
O2703       O  0.46539853  0.35945826  0.36557768    -0.38980
O2704       O  0.98724833  0.40465324  0.36637528    -0.38920
O2705       O  0.99033843  0.34949161  0.59859742    -0.39630
O2706       O  0.97922422  0.37938862  0.60018257    -0.39690
C2707       C  0.96678429  0.09999475  0.48140479    -0.11980
C2708       C  0.98121259  0.09914065  0.52002035     0.05030
C2709       C  0.50443730  0.12679257  0.53560203    -0.07260
C2710       C  0.51032113  0.15263680  0.51118011    -0.08010
C2711       C  0.99457764  0.15256613  0.47150803    -0.02560
C2712       C  0.97339400  0.12598915  0.45672435     0.04260
N2713       N  0.95887370  0.12498290  0.41580289     0.66760
H2714       H  0.95160106  0.08020369  0.46823545     0.15660
H2715       H  0.52546914  0.17255558  0.52400523     0.15370
N2716       N  0.51987194  0.12801918  0.57538058     0.74470
O2717       O  0.93462890  0.10416247  0.41091576    -0.38980
O2718       O  0.97108751  0.14331566  0.38280481    -0.38920
O2719       O  0.54403124  0.14920024  0.57937854    -0.39630
O2720       O  0.50870267  0.10915802  0.60817077    -0.39690
C2721       C  0.95402243  0.47849252  0.76898812    -0.11980
C2722       C  0.97458489  0.47644092  0.79133345     0.05030
C2723       C  0.49291574  0.47715565  0.76515946    -0.07260
C2724       C  0.49128684  0.48063793  0.71872219    -0.08010
C2725       C  0.97274687  0.48374012  0.69693093    -0.02560
C2726       C  0.95287857  0.48223394  0.72221521     0.04260
N2727       N  0.93201816  0.48533319  0.70166842     0.66760
H2728       H  0.93960127  0.47878149  0.78813304     0.15660
H2729       H  0.50649856  0.48140968  0.70012045     0.15370
N2730       N  0.51538735  0.47662269  0.78523152     0.74470
O2731       O  0.90740350  0.46664778  0.71184317    -0.38980
O2732       O  0.93681648  0.00902355  0.68191426    -0.38920
O2733       O  0.51147707  0.45854811  0.81794418    -0.39630
O2734       O  0.53896421  0.99094229  0.76757960    -0.39690
C2735       C  0.98524309  0.01711361  0.20587707    -0.11980
C2736       C  0.00859767  0.02116515  0.18982412     0.05030
C2737       C  0.52869124  0.02142710  0.21962444    -0.07260
C2738       C  0.52413849  0.01673833  0.26559456    -0.08010
C2739       C  0.49999641  0.01115588  0.28242522    -0.02560
C2740       C  0.97983878  0.01104095  0.25118371     0.04260
N2741       N  0.95344272  0.00215414  0.26513466     0.66760
H2742       H  0.96977126  0.01590432  0.18275007     0.15660
H2743       H  0.53953012  0.01749107  0.28828841     0.15370
N2744       N  0.55317411  0.02615343  0.20306664     0.74470
O2745       O  0.94475889  0.01765252  0.25324946    -0.38980
O2746       O  0.93827413  0.47681661  0.28443244    -0.38920
O2747       O  0.56278534  0.04011648  0.16554299    -0.39630
O2748       O  0.56635198  0.01800606  0.22719397    -0.39690
C2749       C  0.86636197  0.39364249  0.95332123    -0.11980
C2750       C  0.88923507  0.39759177  0.97781561     0.05030
C2751       C  0.88496403  0.38638844  0.02363040    -0.07260
C2752       C  0.85871908  0.37164686  0.04237312    -0.08010
C2753       C  0.83562075  0.36653669  0.01759187    -0.02560
C2754       C  0.83987127  0.37846193  0.97201879     0.04260
N2755       N  0.81794562  0.37509529  0.94347879     0.66760
H2756       H  0.86935631  0.40330420  0.91905705     0.15660
H2757       H  0.85598122  0.36242200  0.07688307     0.15370
N2758       N  0.90657167  0.38914144  0.05222108     0.74470
O2759       O  0.80009984  0.37742020  0.95777531    -0.38980
O2760       O  0.81873099  0.37427112  0.90223506    -0.38920
O2761       O  0.90645744  0.39156366  0.09298333    -0.39630
O2762       O  0.92156156  0.38230520  0.03985689    -0.39690
C2763       C  0.65174246  0.12078994  0.00750718    -0.11980
C2764       C  0.65291861  0.14196050  0.97686646     0.05030
C2765       C  0.62913712  0.14278272  0.97134497    -0.07260
C2766       C  0.60663259  0.12450811  0.99918454    -0.08010
C2767       C  0.60519503  0.10302483  0.02886869    -0.02560
C2768       C  0.62818440  0.10104751  0.03279280     0.04260
N2769       N  0.62753701  0.07823771  0.06037159     0.66760
H2770       H  0.66944239  0.11982321  0.01255205     0.15660
H2771       H  0.58873032  0.12511567  0.99382562     0.15370
N2772       N  0.62692165  0.16169688  0.93766040     0.74470
O2773       O  0.63714301  0.06602042  0.04602467    -0.38980
O2774       O  0.61777971  0.07046386  0.09919505    -0.38920
O2775       O  0.63382511  0.16426253  0.89808531    -0.39630
O2776       O  0.61278336  0.17080745  0.94508671    -0.39690
C2777       C  0.91801375  0.05860116  0.04162595    -0.11980
C2778       C  0.91795221  0.03399350  0.05533138     0.05030
C2779       C  0.89262330  0.50951962  0.07307107    -0.07260
C2780       C  0.86841832  0.50909622  0.07074758    -0.08010
C2781       C  0.86777210  0.03287095  0.05422173    -0.02560
C2782       C  0.89381238  0.05874935  0.04229449     0.04260
N2783       N  0.89652103  0.08529739  0.02985468     0.66760
H2784       H  0.93667237  0.07754053  0.02787445     0.15660
H2785       H  0.84949909  0.48943020  0.08191865     0.15370
N2786       N  0.89109011  0.48430876  0.09245075     0.74470
O2787       O  0.91896433  0.10842464  0.03521830    -0.38980
O2788       O  0.87674729  0.08606580  0.01381548    -0.38920
O2789       O  0.91078632  0.48630239  0.11509740    -0.39630
O2790       O  0.86929749  0.46006808  0.09016792    -0.39690
C2791       C  0.58898016  0.47008065  0.97095274    -0.11980
C2792       C  0.57671130  0.47149952  0.92981773     0.05030
C2793       C  0.59119374  0.47548147  0.89091795    -0.07260
C2794       C  0.61618195  0.47681641  0.89508903    -0.08010
C2795       C  0.62858571  0.47632671  0.93683407    -0.02560
C2796       C  0.61429617  0.47286198  0.97518136     0.04260
N2797       N  0.62564928  0.47323007  0.01913624     0.66760
H2798       H  0.57935454  0.46852473  0.00092445     0.15660
H2799       H  0.62717944  0.48058961  0.86530185     0.15370
N2800       N  0.58208933  0.48002538  0.84710021     0.74470
O2801       O  0.62096604  0.48302921  0.04924663    -0.38980
O2802       O  0.63876246  0.46202816  0.02904850    -0.38920
O2803       O  0.57067421  0.99312122  0.84193982    -0.39630
O2804       O  0.58904540  0.47483549  0.81348185    -0.39690
C2805       C  0.96683843  0.36556278  0.01599425    -0.11980
C2806       C  0.49149908  0.38948469  0.02861290     0.05030
C2807       C  0.51641153  0.39373898  0.01866564    -0.07260
C2808       C  0.51598951  0.37638166  0.99035582    -0.08010
C2809       C  0.99135822  0.35354303  0.97569736    -0.02560
C2810       C  0.96647087  0.34851487  0.98731376     0.04260
N2811       N  0.94086964  0.32601624  0.97055844     0.66760
H2812       H  0.94789938  0.36279679  0.02301668     0.15660
H2813       H  0.53476135  0.37879904  0.98316759     0.15370
N2814       N  0.54195585  0.41489397  0.03767277     0.74470
O2815       O  0.91867139  0.31814132  0.98783514    -0.38980
O2816       O  0.94014914  0.31625987  0.93529981    -0.38920
O2817       O  0.54270752  0.42981249  0.06524651    -0.39630
O2818       O  0.56327070  0.41584494  0.03210262    -0.39690
C2819       C  0.51408914  0.15271856  0.94722592    -0.11980
C2820       C  0.00423548  0.14927746  0.99010178     0.05030
C2821       C  0.00221341  0.12829531  0.02288825    -0.07260
C2822       C  0.00967027  0.11103442  0.01103615    -0.08010
C2823       C  0.01692450  0.11301670  0.96697569    -0.02560
C2824       C  0.52015806  0.13450617  0.93515445     0.04260
N2825       N  0.53004425  0.13857759  0.89100501     0.66760
H2826       H  0.51687537  0.16972783  0.92254524     0.15660
H2827       H  0.00807588  0.09460809  0.03565789     0.15370
N2828       N  0.99116633  0.12285709  0.06659470     0.74470
O2829       O  0.52407349  0.15070732  0.85885106    -0.38980
O2830       O  0.54698044  0.13278238  0.88473804    -0.38920
O2831       O  0.97163052  0.12501714  0.07171543    -0.39630
O2832       O  0.99787683  0.11151067  0.09889993    -0.39690
O2833       O  0.57498415  0.55470676  0.03983464    -0.75000
O2834       O  0.55639963  0.57939287  0.04216687    -0.53910
C2835       C  0.57732680  0.57787374  0.04008315     0.78730
O2836       O  0.48427053  0.50450376  0.84755505    -0.59600
O2837       O  0.47843381  0.96124151  0.86740640    -0.52630
C2838       C  0.47922341  0.98061195  0.83897885     0.70740
O2839       O  0.50499103  0.57635249  0.92337202    -0.74160
O2840       O  0.03102621  0.58302536  0.98428117    -0.54720
C2841       C  0.01859478  0.59035024  0.95645961     0.76750
O2842       O  0.56636386  0.50410727  0.93893989    -0.59300
O2843       O  0.52887060  0.95939792  0.93334041    -0.52420
C2844       C  0.55548056  0.97837967  0.93231137     0.73340
Zr2845     Zr  0.55134032  0.52385606  0.98421226     2.54710
O2846       O  0.58747826  0.56598523  0.94018171    -0.79870
O2847       O  0.58079029  0.51054259  0.02236512    -0.93290
Zr2848     Zr  0.49735447  0.53153544  0.91059136     2.64680
O2849       O  0.53586566  0.56558611  0.86184394    -0.98240
O2850       O  0.96556109  0.53736678  0.86345081    -0.80300
O2851       O  0.52927367  0.54767009  0.96953749    -0.83660
O2852       O  0.51994387  0.50786342  0.92385403    -2.18370
O2853       O  0.99510283  0.92751705  0.05754693    -0.67050
O2854       O  0.48584949  0.92050133  0.98465720    -0.51610
C2855       C  0.49078537  0.91405713  0.02461992     0.71720
O2856       O  0.92898246  0.00740764  0.02178111    -0.59960
O2857       O  0.96605073  0.54561529  0.05061506    -0.51930
C2858       C  0.93966387  0.52965269  0.04183455     0.73520
O2859       O  0.92144131  0.94468798  0.94675049    -0.71350
O2860       O  0.93693452  0.91745082  0.95570665    -0.50030
C2861       C  0.91702069  0.92037744  0.95785923     0.74910
O2862       O  0.00296355  0.99447296  0.13437813    -0.66680
O2863       O  0.01103565  0.53857270  0.11559202    -0.53880
C2864       C  0.00817074  0.51823221  0.14383533     0.73290
Zr2865     Zr  0.99637587  0.96913463  0.07153382     2.77540
O2866       O  0.96319093  0.93148191  0.12515443    -0.97430
O2867       O  0.53427709  0.97286017  0.11612739    -0.78250
Zr2868     Zr  0.94170796  0.97728577  0.00149233     2.70070
O2869       O  0.91819808  0.94538331  0.06829270    -0.79500
O2870       O  0.89426465  0.96168325  0.98998835    -0.98580
Zr2871     Zr  0.00642489  0.54188300  0.03626388     2.21500
Zr2872     Zr  0.48625643  0.95908283  0.94745174     2.11130
O2873       O  0.96380487  0.95310512  0.01450426    -2.47270
O2874       O  0.97408918  0.99320713  0.05950958    -0.79290
O2875       O  0.51873804  0.97574965  0.00613957    -0.71490
O2876       O  0.97393410  0.52548778  0.97659707    -2.32440
O2877       O  0.52793967  0.51693013  0.05059587    -2.28650
O2878       O  0.96329547  0.98328163  0.93369018    -0.73250
H2879       H  0.52888972  0.50984708  0.89709396     0.78750
H2880       H  0.96578763  0.53606293  0.96993575     0.79840
H2881       H  0.95086103  0.93342432  0.02558145     0.82060
H2882       H  0.53863650  0.52227729  0.07759841     0.79670
H2883       H  0.94737124  0.52199451  0.87568924     0.42710
H2884       H  0.89115649  0.96194685  0.95738878     0.41680
H2885       H  0.93193213  0.95092032  0.09249262     0.41350
H2886       H  0.95903159  0.91365087  0.11572685     0.39290
H2887       H  0.54595454  0.97330624  0.09419969     0.42420
H2888       H  0.58360955  0.51602879  0.05285133     0.37200
H2889       H  0.58088668  0.57850356  0.93346468     0.43320
H2890       H  0.53888617  0.55386180  0.84551393     0.39730
H2891       H  0.97374745  0.93371116  0.15313279     0.44650
H2892       H  0.59874120  0.52367986  0.00770945     0.43380
H2893       H  0.52852406  0.57378659  0.83907876     0.43510
H2894       H  0.88320662  0.94134800  0.00193309     0.43870
O2895       O  0.96241336  0.92090009  0.44179694    -0.75000
O2896       O  0.50841026  0.95082101  0.43714206    -0.53910
C2897       C  0.48603253  0.92544484  0.44315281     0.78730
O2898       O  0.92424693  0.51718508  0.41651042    -0.59600
O2899       O  0.93110928  0.50926060  0.48491162    -0.52630
C2900       C  0.91722157  0.51369323  0.45632432     0.70740
O2901       O  0.97906645  0.51073564  0.34498549    -0.74160
O2902       O  0.50771382  0.50097867  0.35503625    -0.54720
C2903       C  0.49258476  0.50666939  0.32993077     0.76750
O2904       O  0.91293185  0.92050895  0.53945849    -0.59300
O2905       O  0.90837842  0.95270739  0.56682033    -0.52420
C2906       C  0.90054722  0.92697740  0.56210972     0.73340
Zr2907     Zr  0.94916583  0.94179271  0.48795378     2.54710
O2908       O  0.90924770  0.91757311  0.44007622    -0.79870
O2909       O  0.93681114  0.89706712  0.53103381    -0.93290
Zr2910     Zr  0.95886900  0.50803721  0.41331290     2.64680
O2911       O  0.91581495  0.96816086  0.37608643    -0.98240
O2912       O  0.96796608  0.54988451  0.36441867    -0.80300
O2913       O  0.96843479  0.97279080  0.42141799    -0.83660
O2914       O  0.93572605  0.97325219  0.47848180    -2.18370
O2915       O  0.99061423  0.98704866  0.62902256    -0.67050
O2916       O  0.95670034  0.99447418  0.62329740    -0.51610
C2917       C  0.97246265  0.98857858  0.64622918     0.71720
O2918       O  0.55398920  0.58030792  0.43847114    -0.59960
O2919       O  0.55661307  0.54749669  0.40891710    -0.51930
C2920       C  0.56559293  0.57341336  0.41496522     0.73520
O2921       O  0.00640651  0.57741766  0.53782484    -0.71350
O2922       O  0.96072462  0.54811839  0.54187568    -0.50030
C2923       C  0.98308961  0.57354044  0.53609537     0.74910
O2924       O  0.55151282  0.49415698  0.53357483    -0.66680
O2925       O  0.55209432  0.49680215  0.45755295    -0.53880
C2926       C  0.56132542  0.49475795  0.49640447     0.73290
Zr2927     Zr  0.51325691  0.49474569  0.55985910     2.77540
O2928       O  0.55171785  0.53067476  0.60059007    -0.97430
O2929       O  0.51279293  0.95457607  0.60797869    -0.78250
Zr2930     Zr  0.51650014  0.55760952  0.48655033     2.70070
O2931       O  0.55692203  0.58889108  0.52911970    -0.79500
O2932       O  0.51772044  0.59647251  0.44008742    -0.98580
Zr2933     Zr  0.51485850  0.49948753  0.43386006     2.21500
Zr2934     Zr  0.95379356  0.50037386  0.54444393     2.11130
O2935       O  0.00211850  0.52616261  0.55507306    -2.47270
O2936       O  0.53181270  0.52719266  0.49511301    -0.79290
O2937       O  0.96575291  0.96775021  0.55052421    -0.71490
O2938       O  0.50139297  0.53202926  0.42346888    -2.32440
O2939       O  0.49713442  0.96733970  0.50114487    -2.28650
O2940       O  0.97357448  0.53260681  0.47842328    -0.73250
H2941       H  0.91607900  0.96119905  0.47544766     0.78750
H2942       H  0.50996836  0.54527992  0.39710964     0.79840
H2943       H  0.00768775  0.53625437  0.58102263     0.82060
H2944       H  0.50231751  0.95421634  0.50876664     0.79670
H2945       H  0.98562751  0.56579201  0.37490579     0.42710
H2946       H  0.00581151  0.59374244  0.44086419     0.41680
H2947       H  0.56733727  0.58011204  0.53233566     0.41350
H2948       H  0.54347842  0.53492851  0.62253054     0.39290
H2949       H  0.99618555  0.93865526  0.59932514     0.42420
H2950       H  0.95250852  0.90200923  0.55113548     0.37200
H2951       H  0.91563962  0.91414437  0.41416215     0.43320
H2952       H  0.92212733  0.95771414  0.36401334     0.39730
H2953       H  0.55875829  0.52036939  0.61874445     0.44650
H2954       H  0.93662883  0.88529352  0.51001899     0.43380
H2955       H  0.91259047  0.97811405  0.34953001     0.43510
H2956       H  0.52461603  0.61155644  0.45977672     0.43870
O2957       O  0.57450874  0.77174585  0.95055115    -0.75000
O2958       O  0.54485953  0.72573456  0.93907177    -0.53910
C2959       C  0.56923887  0.74734836  0.94695373     0.78730
O2960       O  0.49636830  0.72978575  0.13145719    -0.59600
O2961       O  0.49053497  0.76611138  0.12044857    -0.52630
C2962       C  0.49591084  0.74977609  0.14548862     0.70740
O2963       O  0.00066297  0.67866011  0.03357084    -0.74160
O2964       O  0.98578539  0.67376562  0.96221912    -0.54720
C2965       C  0.99591471  0.66781594  0.99674159     0.76750
O2966       O  0.56294408  0.80999797  0.05363144    -0.59300
O2967       O  0.53067631  0.81891141  0.05849425    -0.52420
C2968       C  0.55538933  0.82572105  0.06158785     0.73340
Zr2969     Zr  0.54982833  0.78221624  0.99318237     2.54710
O2970       O  0.58848007  0.78509616  0.03274987    -0.79870
O2971       O  0.57968023  0.82946646  0.95386764    -0.93290
Zr2972     Zr  0.49023082  0.70995218  0.06016801     2.64680
O2973       O  0.51475753  0.69557372  0.11234542    -0.98240
O2974       O  0.94864963  0.66850759  0.09453089    -0.80300
O2975       O  0.52290616  0.73212258  0.00127651    -0.83660
O2976       O  0.51835058  0.75983795  0.05297877    -2.18370
O2977       O  0.99544230  0.82344162  0.93645164    -0.67050
O2978       O  0.48819348  0.81500552  0.01191483    -0.51610
C2979       C  0.99144963  0.82891514  0.97356517     0.71720
O2980       O  0.94572859  0.70539859  0.90667413    -0.59960
O2981       O  0.96111524  0.68012659  0.89797623    -0.51930
C2982       C  0.94069098  0.68158866  0.89982087     0.73520
O2983       O  0.91220767  0.72376712  0.02011876    -0.71350
O2984       O  0.94221718  0.76710425  0.04399607    -0.50030
C2985       C  0.91787837  0.74674976  0.03273553     0.74910
O2986       O  0.98852808  0.76447702  0.84486905    -0.66680
O2987       O  0.99730396  0.73023932  0.85163817    -0.53880
C2988       C  0.99039438  0.74605720  0.82907253     0.73290
Zr2989     Zr  0.99715040  0.78565149  0.91333389     2.77540
O2990       O  0.96690112  0.79251119  0.86259292    -0.97430
O2991       O  0.53716716  0.82563898  0.87306870    -0.78250
Zr2992     Zr  0.93745512  0.71397222  0.97763385     2.70070
O2993       O  0.90426256  0.72027214  0.93560465    -0.79500
O2994       O  0.90297221  0.66470764  0.00482269    -0.98580
Zr2995     Zr  0.99952456  0.71978263  0.93226970     2.21500
Zr2996     Zr  0.48819094  0.77504096  0.04043825     2.11130
O2997       O  0.96458817  0.76378490  0.97170765    -2.47270
O2998       O  0.97027072  0.73604581  0.92054082    -0.79290
O2999       O  0.52091361  0.79822436  0.98136887    -0.71490
O3000       O  0.96589032  0.69740072  0.99213926    -2.32440
O3001       O  0.52714628  0.77050573  0.92364447    -2.28650
O3002       O  0.95988338  0.72473138  0.04778628    -0.73250
H3003       H  0.52865509  0.76529861  0.08021960     0.78750
H3004       H  0.95391977  0.67694692  0.99358261     0.79840
H3005       H  0.95310256  0.77074976  0.96590084     0.82060
H3006       H  0.53969935  0.77813236  0.89909763     0.79670
H3007       H  0.94834892  0.65215340  0.08706250     0.42710
H3008       H  0.91234650  0.65865773  0.02708367     0.41680
H3009       H  0.91456154  0.73420895  0.90968316     0.41350
H3010       H  0.95231416  0.78889793  0.88172695     0.39290
H3011       H  0.54532001  0.84093320  0.89270710     0.42420
H3012       H  0.58362804  0.82615698  0.92517483     0.37200
H3013       H  0.58049583  0.77162746  0.06011589     0.43320
H3014       H  0.53284036  0.71333392  0.11592680     0.39730
H3015       H  0.97743529  0.81317171  0.85274468     0.44650
H3016       H  0.59713171  0.83778760  0.97054511     0.43380
H3017       H  0.50560542  0.69013644  0.14139600     0.43510
H3018       H  0.89056358  0.66580775  0.02286707     0.43870
O3019       O  0.55565552  0.75324503  0.55628625    -0.75000
O3020       O  0.55965641  0.75229230  0.48240928    -0.53910
C3021       C  0.56819181  0.75438661  0.52251298     0.78730
O3022       O  0.92090733  0.67445417  0.54449224    -0.59600
O3023       O  0.90425125  0.70011867  0.52570163    -0.52630
C3024       C  0.90129186  0.67578065  0.52970485     0.70740
O3025       O  0.97361386  0.67545523  0.44694691    -0.74160
O3026       O  0.51835906  0.70542362  0.45521510    -0.54720
C3027       C  0.49636343  0.67977596  0.45488056     0.76750
O3028       O  0.98853409  0.74400182  0.63197857    -0.59300
O3029       O  0.95031667  0.74413617  0.61571206    -0.52420
C3030       C  0.96796098  0.74356089  0.64310181     0.73340
Zr3031     Zr  0.51241303  0.74724197  0.56839640     2.54710
O3032       O  0.50629780  0.70550002  0.61341341    -0.79870
O3033       O  0.54532263  0.77920109  0.62043175    -0.93290
Zr3034     Zr  0.95590335  0.69214642  0.49181422     2.64680
O3035       O  0.95413755  0.65232598  0.53593911    -0.98240
O3036       O  0.91837795  0.66042956  0.44488476    -0.80300
O3037       O  0.50294385  0.72080198  0.50842882    -0.83660
O3038       O  0.96524716  0.71800247  0.55364741    -2.18370
O3039       O  0.99817410  0.82674639  0.52899161    -0.67050
O3040       O  0.95278927  0.79442967  0.52755216    -0.51610
C3041       C  0.97402866  0.82056919  0.52350038     0.71720
O3042       O  0.98708392  0.76014907  0.34609920    -0.59960
O3043       O  0.52392195  0.75776101  0.36212616    -0.51930
C3044       C  0.50754596  0.76044013  0.33435202     0.73520
O3045       O  0.92020788  0.75184246  0.42330829    -0.71350
O3046       O  0.91528774  0.75229911  0.49732490    -0.50030
C3047       C  0.90778719  0.75149013  0.45659608     0.74910
O3048       O  0.55143572  0.82637176  0.43099569    -0.66680
O3049       O  0.56965485  0.80175617  0.44191292    -0.53880
C3050       C  0.57200841  0.82557574  0.44174136     0.73290
Zr3051     Zr  0.51861922  0.81033759  0.48771368     2.77540
O3052       O  0.52815741  0.85445611  0.44612457    -0.97430
O3053       O  0.55650668  0.83819383  0.53723215    -0.78250
Zr3054     Zr  0.96224924  0.75532047  0.40972525     2.70070
O3055       O  0.96720446  0.79640866  0.36437741    -0.79500
O3056       O  0.93015859  0.72390582  0.35633244    -0.98580
Zr3057     Zr  0.52489460  0.75382759  0.44415907     2.21500
Zr3058     Zr  0.94890484  0.74794091  0.53369206     2.11130
O3059       O  0.97204889  0.78138089  0.46951957    -2.47270
O3060       O  0.50930247  0.78446936  0.42607487    -0.79290
O3061       O  0.99637592  0.77699096  0.55159996    -0.71490
O3062       O  0.97739410  0.72487127  0.42740127    -2.32440
O3063       O  0.53409658  0.78041324  0.50609230    -2.28650
O3064       O  0.93999300  0.72175758  0.47222888    -0.73250
H3065       H  0.95747979  0.70614356  0.58146819     0.78750
H3066       H  0.97427924  0.71492835  0.40206393     0.79840
H3067       H  0.96559451  0.79315609  0.45863203     0.82060
H3068       H  0.55305363  0.79195485  0.51458003     0.79670
H3069       H  0.92576611  0.66690028  0.41423865     0.42710
H3070       H  0.92099826  0.70458375  0.37262321     0.41680
H3071       H  0.98477047  0.81284122  0.37405921     0.41350
H3072       H  0.01188739  0.84890340  0.42812672     0.39290
H3073       H  0.54831245  0.83168102  0.56731965     0.42420
H3074       H  0.56125361  0.79413381  0.60193497     0.37200
H3075       H  0.50741415  0.69474384  0.59190862     0.43320
H3076       H  0.95145271  0.65368098  0.56702251     0.39730
H3077       H  0.52822779  0.86574826  0.46796461     0.44650
H3078       H  0.55160395  0.76818800  0.63860859     0.43380
H3079       H  0.93665399  0.63528143  0.52745585     0.43510
H3080       H  0.91590209  0.72783277  0.35208892     0.43870
O3081       O  0.67510633  0.93679700  0.05953382    -0.75000
O3082       O  0.66732648  0.92664676  0.98769929    -0.53910
C3083       C  0.65976411  0.92238369  0.02806346     0.78730
O3084       O  0.74711374  0.57517553  0.02358657    -0.59600
O3085       O  0.78601713  0.58303992  0.05809325    -0.52630
C3086       C  0.76778346  0.58874489  0.04911679     0.70740
O3087       O  0.67493108  0.50745824  0.95870636    -0.74160
O3088       O  0.66462571  0.96757384  0.93202596    -0.54720
C3089       C  0.65802213  0.98428502  0.94225508     0.76750
O3090       O  0.74451450  0.00095470  0.13441044    -0.59300
O3091       O  0.78625062  0.54114140  0.11748290    -0.52420
C3092       C  0.76593160  0.52373166  0.14408324     0.73340
Zr3093     Zr  0.72214319  0.97533916  0.07072254     2.54710
O3094       O  0.69066574  0.97190633  0.12177058    -0.79870
O3095       O  0.72319227  0.93771540  0.11677551    -0.93290
Zr3096     Zr  0.72277928  0.53437524  0.98288017     2.64680
O3097       O  0.69053138  0.53704618  0.02278631    -0.98240
O3098       O  0.72821541  0.56984249  0.92235622    -0.80300
O3099       O  0.70202710  0.98555164  0.00718443    -0.83660
O3100       O  0.74254116  0.52431657  0.04761736    -2.18370
O3101       O  0.82162303  0.50400167  0.02737765    -0.67050
O3102       O  0.83234271  0.54438229  0.05325496    -0.51610
C3103       C  0.83889891  0.52723979  0.04464377     0.71720
O3104       O  0.74908554  0.50827529  0.84658405    -0.59960
O3105       O  0.70651684  0.96871183  0.86674253    -0.51930
C3106       C  0.72530922  0.98614895  0.83810784     0.73520
O3107       O  0.81861245  0.57382012  0.91814988    -0.71350
O3108       O  0.82764211  0.58479233  0.99022234    -0.50030
C3109       C  0.83384167  0.58876792  0.94877709     0.74910
O3110       O  0.75465878  0.94215202  0.94885565    -0.66680
O3111       O  0.71154985  0.92925554  0.92810711    -0.53880
C3112       C  0.73175356  0.92648407  0.92966501     0.73290
Zr3113     Zr  0.77433199  0.97745998  0.99922638     2.77540
O3114       O  0.80421674  0.97002160  0.96194222    -0.97430
O3115       O  0.76578009  0.93990882  0.05808342    -0.78250
Zr3116     Zr  0.77315480  0.53408443  0.91045127     2.70070
O3117       O  0.80375439  0.53415460  0.86183545    -0.79500
O3118       O  0.77252740  0.57139731  0.86252046    -0.98580
Zr3119     Zr  0.70632601  0.96606203  0.94730128     2.21500
Zr3120     Zr  0.79017844  0.54546801  0.03596236     2.11130
O3121       O  0.79428439  0.52568686  0.97523445    -2.47270
O3122       O  0.75322889  0.98590143  0.93442387    -0.79290
O3123       O  0.76936499  0.99590714  0.05984934    -0.71490
O3124       O  0.72679007  0.51521517  0.92240665    -2.32440
O3125       O  0.72689573  0.95541020  0.01208854    -2.28650
O3126       O  0.76969335  0.55501969  0.96966732    -0.73250
H3127       H  0.74008056  0.53205641  0.07145463     0.78750
H3128       H  0.71814100  0.51822886  0.89583808     0.79840
H3129       H  0.81310470  0.53377107  0.96876322     0.82060
H3130       H  0.71774385  0.93509326  0.01932639     0.79670
H3131       H  0.71165577  0.55954103  0.90375331     0.42710
H3132       H  0.78041791  0.58721089  0.88106053     0.41680
H3133       H  0.80759077  0.52060109  0.87826105     0.41350
H3134       H  0.81941756  0.48912780  0.94963956     0.39290
H3135       H  0.77829352  0.95003972  0.08250751     0.42420
H3136       H  0.70945304  0.92018923  0.10321735     0.37200
H3137       H  0.68514274  0.98425987  0.10614343     0.43320
H3138       H  0.69509006  0.53528736  0.05471738     0.39730
H3139       H  0.81239357  0.96341696  0.98588344     0.44650
H3140       H  0.71492480  0.93566597  0.14529861     0.43380
H3141       H  0.69574210  0.55683517  0.01568270     0.43510
H3142       H  0.78662320  0.57814648  0.83980586     0.43870
O3143       O  0.75316996  0.57195344  0.54391751    -0.75000
O3144       O  0.70921328  0.53610456  0.56152529    -0.53910
C3145       C  0.72973920  0.56279554  0.55817147     0.78730
O3146       O  0.73420339  0.51359668  0.34748948    -0.59600
O3147       O  0.77450650  0.51749122  0.35930245    -0.52630
C3148       C  0.75654971  0.51796852  0.33357442     0.70740
O3149       O  0.67343847  0.00654512  0.44293912    -0.74160
O3150       O  0.66842938  0.99756520  0.51881809    -0.54720
C3151       C  0.66187554  0.00345003  0.47984597     0.76750
O3152       O  0.80095761  0.57543097  0.43833064    -0.59300
O3153       O  0.81931914  0.55119063  0.44315274    -0.52420
C3154       C  0.82168156  0.57474875  0.44478833     0.73340
Zr3155     Zr  0.76926192  0.55458103  0.49767238     2.54710
O3156       O  0.77901091  0.60099670  0.46844034    -0.79870
O3157       O  0.80840917  0.57947113  0.54662126    -0.93290
Zr3158     Zr  0.71181151  0.00577954  0.41731366     2.64680
O3159       O  0.71002322  0.54369163  0.37167216    -0.98240
O3160       O  0.67497215  0.97113302  0.37263307    -0.80300
O3161       O  0.72187944  0.52702418  0.48354573    -0.83660
O3162       O  0.75676066  0.53404837  0.42939953    -2.18370
O3163       O  0.80354662  0.98651316  0.54539944    -0.67050
O3164       O  0.81627737  0.01794484  0.48452025    -0.51610
C3165       C  0.81888533  0.00059290  0.51120436     0.71720
O3166       O  0.67902354  0.91932754  0.54463607    -0.59960
O3167       O  0.65895160  0.94192452  0.54410994    -0.51930
C3168       C  0.65752598  0.91899314  0.53989916     0.73520
O3169       O  0.72665553  0.93632673  0.41652845    -0.71350
O3170       O  0.77219518  0.96280925  0.42058207    -0.50030
C3171       C  0.74931730  0.93900740  0.41431486     0.74910
O3172       O  0.74428060  0.98367407  0.63678745    -0.66680
O3173       O  0.70563839  0.98335495  0.62391060    -0.53880
C3174       C  0.72364741  0.98279944  0.64969361     0.73290
Zr3175     Zr  0.76586220  0.98822710  0.56765570     2.77540
O3176       O  0.75739232  0.94487772  0.61042970    -0.97430
O3177       O  0.80369155  0.51719623  0.61375235    -0.78250
Zr3178     Zr  0.70978274  0.94003532  0.48320093     2.70070
O3179       O  0.71537135  0.90164777  0.51013495    -0.79500
O3180       O  0.66902916  0.90450070  0.44590040    -0.98580
Zr3181     Zr  0.70274457  0.99067452  0.54387180     2.21500
Zr3182     Zr  0.77722365  0.00615648  0.44030848     2.11130
O3183       O  0.75676620  0.96766770  0.49958278    -2.47270
O3184       O  0.71871770  0.96019662  0.55147162    -0.79290
O3185       O  0.78601078  0.52569962  0.50573541    -0.71490
O3186       O  0.69197760  0.96863726  0.47585563    -2.32440
O3187       O  0.75002465  0.51838348  0.55811730    -2.28650
O3188       O  0.72954181  0.97759630  0.42492571    -0.73250
H3189       H  0.76315907  0.54744086  0.40271828     0.78750
H3190       H  0.67272724  0.95736894  0.46899412     0.79840
H3191       H  0.76354673  0.95580054  0.50129042     0.82060
H3192       H  0.75405173  0.52737990  0.58491193     0.79670
H3193       H  0.65815120  0.96348683  0.38950934     0.42710
H3194       H  0.66988304  0.91391749  0.41549207     0.41680
H3195       H  0.71563325  0.90082664  0.54300789     0.41350
H3196       H  0.76030842  0.93533793  0.58903824     0.39290
H3197       H  0.80582162  0.53571590  0.60973789     0.42420
H3198       H  0.80052493  0.57459970  0.57668562     0.37200
H3199       H  0.77242493  0.59896584  0.43721164     0.43320
H3200       H  0.72959274  0.55898838  0.36716727     0.39730
H3201       H  0.77305723  0.95147093  0.63127643     0.44650
H3202       H  0.81533858  0.59975867  0.53884341     0.43380
H3203       H  0.70338885  0.53693022  0.34202767     0.43510
H3204       H  0.67236491  0.88994267  0.44172979     0.43870
O3205       O  0.74860261  0.68770958  0.08900184    -0.75000
O3206       O  0.75229610  0.68058065  0.01805319    -0.53910
C3207       C  0.75222244  0.67511797  0.06067409     0.78730
O3208       O  0.66540601  0.73483529  0.02446831    -0.59600
O3209       O  0.69410109  0.78213297  0.01253674    -0.52630
C3210       C  0.66966537  0.75889324  0.01175133     0.70740
O3211       O  0.68012330  0.68794686  0.94323464    -0.74160
O3212       O  0.70298599  0.66948608  0.96963601    -0.54720
C3213       C  0.68000579  0.66675869  0.95976266     0.76750
O3214       O  0.73787803  0.75129620  0.14394160    -0.59300
O3215       O  0.73585158  0.78921427  0.11565157    -0.52420
C3216       C  0.73613311  0.77220996  0.14851676     0.73340
Zr3217     Zr  0.74144395  0.72672337  0.08788751     2.54710
O3218       O  0.70177593  0.68824598  0.13060527    -0.79870
O3219       O  0.77347865  0.73271651  0.14796721    -0.93290
Zr3220     Zr  0.69011820  0.72047090  0.99336864     2.64680
O3221       O  0.65578379  0.67939909  0.04162956    -0.98240
O3222       O  0.65926885  0.72254136  0.93773863    -0.80300
O3223       O  0.71699047  0.70372863  0.02475993    -0.83660
O3224       O  0.71350638  0.74257837  0.05766250    -2.18370
O3225       O  0.80737710  0.82082783  0.05645016    -0.67050
O3226       O  0.78574574  0.84049924  0.03122974    -0.51610
C3227       C  0.80844461  0.84250920  0.03764607     0.71720
O3228       O  0.75178516  0.75608550  0.85944260    -0.59960
O3229       O  0.75132491  0.71666808  0.88820570    -0.51930
C3230       C  0.75136235  0.73377617  0.85542219     0.73520
O3231       O  0.74085108  0.81977057  0.91818805    -0.71350
O3232       O  0.73750135  0.82720384  0.98891854    -0.50030
C3233       C  0.73663913  0.83197842  0.94653757     0.74910
O3234       O  0.82436919  0.76497163  0.00533946    -0.66680
O3235       O  0.79583924  0.72324715  0.97524189    -0.53880
C3236       C  0.81919461  0.74234891  0.99197006     0.73290
Zr3237     Zr  0.80145388  0.78781804  0.00920585     2.77540
O3238       O  0.83333500  0.82075114  0.95024039    -0.97430
O3239       O  0.84279431  0.80641419  0.05411588    -0.78250
Zr3240     Zr  0.74947615  0.78191882  0.91514252     2.70070
O3241       O  0.78699564  0.82050066  0.86880499    -0.79500
O3242       O  0.71609462  0.77461872  0.85642090    -0.98580
Zr3243     Zr  0.74961568  0.71570752  0.96926361     2.21500
Zr3244     Zr  0.74120801  0.79249880  0.03410616     2.11130
O3245       O  0.77377289  0.80359463  0.97788171    -2.47270
O3246       O  0.77774255  0.76587600  0.94487411    -0.79290
O3247       O  0.76962864  0.77647694  0.06487928    -0.71490
O3248       O  0.72261140  0.73306041  0.93828728    -2.32440
O3249       O  0.77351936  0.73889454  0.03350306    -2.28650
O3250       O  0.71760614  0.76942512  0.97053404    -0.73250
H3251       H  0.70060712  0.73834294  0.07989867     0.78750
H3252       H  0.71467770  0.72605858  0.91017556     0.79840
H3253       H  0.78477355  0.82329526  0.96575434     0.82060
H3254       H  0.78443329  0.73246820  0.04781304     0.79670
H3255       H  0.66841358  0.72719265  0.90889381     0.42710
H3256       H  0.71523603  0.79143767  0.85360799     0.41680
H3257       H  0.79729265  0.81274945  0.86171824     0.41350
H3258       H  0.82542308  0.83086615  0.93489297     0.39290
H3259       H  0.83669570  0.79407696  0.08289044     0.42420
H3260       H  0.78847239  0.73384062  0.13368787     0.37200
H3261       H  0.69554981  0.67116813  0.11610062     0.43320
H3262       H  0.65397274  0.68721437  0.06714262     0.39730
H3263       H  0.84972570  0.83508819  0.96588321     0.44650
H3264       H  0.76406909  0.71419483  0.16686101     0.43380
H3265       H  0.66470707  0.66979137  0.05459426     0.43510
H3266       H  0.72489508  0.77682818  0.82842248     0.43870
O3267       O  0.68225795  0.68276234  0.42875497    -0.75000
O3268       O  0.66271023  0.70680706  0.42445224    -0.53910
C3269       C  0.66155323  0.68376911  0.42150768     0.78730
O3270       O  0.72647967  0.73282994  0.64692291    -0.59600
O3271       O  0.76528117  0.73464343  0.64092442    -0.52630
C3272       C  0.74661637  0.73202931  0.66422420     0.70740
O3273       O  0.66867476  0.74174972  0.55897232    -0.74160
O3274       O  0.66560233  0.74898016  0.48311578    -0.54720
C3275       C  0.65779718  0.74587096  0.52330738     0.76750
O3276       O  0.72244353  0.66603813  0.54036173    -0.59300
O3277       O  0.76388129  0.69528588  0.57250520    -0.52420
C3278       C  0.74361092  0.67043995  0.56194712     0.73340
Zr3279     Zr  0.70963705  0.69377264  0.49421884     2.54710
O3280       O  0.66606999  0.65644326  0.52890975    -0.79870
O3281       O  0.71439641  0.66193508  0.45687696    -0.93290
Zr3282     Zr  0.70615327  0.73760223  0.57574486     2.64680
O3283       O  0.66810506  0.69318426  0.61196021    -0.98240
O3284       O  0.70623944  0.76741946  0.62542647    -0.80300
O3285       O  0.68958423  0.71760404  0.50705127    -0.83660
O3286       O  0.72457404  0.71208916  0.56367811    -2.18370
O3287       O  0.80598396  0.75694597  0.45111748    -0.67050
O3288       O  0.81046302  0.74862292  0.52633734    -0.51610
C3289       C  0.81730587  0.75224363  0.48554347     0.71720
O3290       O  0.74704127  0.83022735  0.47266651    -0.59960
O3291       O  0.71390888  0.80381796  0.42345771    -0.51930
C3292       C  0.73117282  0.82776036  0.43989824     0.73520
O3293       O  0.78587486  0.80598587  0.58568877    -0.71350
O3294       O  0.81232290  0.79060131  0.58477334    -0.50030
C3295       C  0.80958084  0.81097059  0.58864967     0.74910
O3296       O  0.75303956  0.77232510  0.36063596    -0.66680
O3297       O  0.71052022  0.76276410  0.36373265    -0.53880
C3298       C  0.73173682  0.76990149  0.34164793     0.73290
Zr3299     Zr  0.77051656  0.76375641  0.43210884     2.77540
O3300       O  0.80996796  0.80869163  0.40013957    -0.97430
O3301       O  0.77193352  0.73701216  0.37818456    -0.78250
Zr3302     Zr  0.76597153  0.80659222  0.51342473     2.70070
O3303       O  0.80708115  0.84109290  0.46972953    -0.79500
O3304       O  0.76717124  0.84287587  0.54952543    -0.98580
Zr3305     Zr  0.70277503  0.75432827  0.44555272     2.21500
Zr3306     Zr  0.77296077  0.74447057  0.56027894     2.11130
O3307       O  0.78668978  0.78303979  0.50083960    -2.47270
O3308       O  0.75086783  0.78784256  0.44443619    -0.79290
O3309       O  0.75732912  0.72594900  0.49013765    -0.71490
O3310       O  0.71844168  0.77415282  0.51545465    -2.32680
O3311       O  0.72351778  0.73050452  0.43396314    -2.28650
O3312       O  0.75345476  0.76976246  0.57240528    -0.73250
H3313       H  0.71926554  0.69702674  0.58784920     0.78750
H3314       H  0.71101350  0.78474145  0.52026188     0.79840
H3315       H  0.80632247  0.79605653  0.49983309     0.82060
H3316       H  0.71944328  0.72429467  0.40466055     0.79670
H3317       H  0.72114871  0.78699448  0.61416658     0.42710
H3318       H  0.74782749  0.83559192  0.55374943     0.41680
H3319       H  0.80063408  0.84824898  0.44358131     0.41350
H3320       H  0.82530198  0.81239186  0.42045698     0.39290
H3321       H  0.76045212  0.71695370  0.39145283     0.42420
H3322       H  0.71558358  0.66849875  0.42463115     0.37200
H3323       H  0.65326575  0.66187148  0.51850705     0.43320
H3324       H  0.67536635  0.68143719  0.62123517     0.39730
H3325       H  0.81388968  0.80414000  0.37266854     0.44650
H3326       H  0.69670982  0.64325189  0.46065698     0.43380
H3327       H  0.66568636  0.69827417  0.64023571     0.43510
H3328       H  0.77382944  0.84191846  0.58032083     0.43870
C3329       C  0.72551327  0.72369904  0.73746908    -0.11980
C3330       C  0.74762155  0.72836154  0.71446532     0.05030
C3331       C  0.76940554  0.72987750  0.74037985    -0.07260
C3332       C  0.76948744  0.72926870  0.78725718    -0.08010
C3333       C  0.74819939  0.72682588  0.80901046    -0.02560
C3334       C  0.72539864  0.72263486  0.78386458     0.04260
N3335       N  0.70195577  0.71746786  0.80502575     0.66760
H3336       H  0.70786861  0.72094229  0.71927100     0.15660
H3337       H  0.78700510  0.73236007  0.80640557     0.15370
N3338       N  0.79188234  0.73272809  0.72019803     0.74470
O3339       O  0.68822131  0.72636033  0.78528180    -0.38980
O3340       O  0.69285210  0.70089064  0.84070388    -0.38920
O3341       O  0.80792731  0.75500045  0.69515429    -0.39630
O3342       O  0.79893894  0.71607508  0.73461184    -0.39690
C3343       C  0.75477821  0.77692931  0.27097086    -0.11980
C3344       C  0.73277883  0.77446699  0.29094371     0.05030
C3345       C  0.71299766  0.77506247  0.26182349    -0.07260
C3346       C  0.71490865  0.77594076  0.21486268    -0.08010
C3347       C  0.73651474  0.77713259  0.19602997    -0.02560
C3348       C  0.75700786  0.77845505  0.22485377     0.04260
N3349       N  0.78018375  0.78077595  0.20786614     0.66760
H3350       H  0.77075747  0.77734457  0.29145448     0.15660
H3351       H  0.69914307  0.77506739  0.19305527     0.15370
N3352       N  0.69119062  0.77509531  0.27879231     0.74470
O3353       O  0.79180239  0.79674951  0.17252766    -0.38980
O3354       O  0.79048428  0.76868192  0.23004059    -0.38920
O3355       O  0.69623923  0.79201953  0.30637333    -0.39630
O3356       O  0.66789125  0.76189601  0.26084172    -0.39690
C3357       C  0.76196331  0.88058840  0.43064335    -0.11980
C3358       C  0.73593705  0.85616541  0.42168746     0.05030
C3359       C  0.71652167  0.86087437  0.40034175    -0.07260
C3360       C  0.72265066  0.88883667  0.39383916    -0.08010
C3361       C  0.74751935  0.91244811  0.40833392    -0.02560
C3362       C  0.76766022  0.90800702  0.42500807     0.04260
N3363       N  0.79337456  0.93062873  0.43996264     0.66760
H3364       H  0.77811868  0.87841212  0.44465324     0.15660
H3365       H  0.70692189  0.89177151  0.38008674     0.15370
N3366       N  0.69026949  0.83801643  0.38680349     0.74470
O3367       O  0.79800240  0.93217044  0.48120386    -0.38980
O3368       O  0.81291230  0.94523931  0.41286063    -0.38920
O3369       O  0.67646185  0.81545542  0.41266640    -0.39630
O3370       O  0.67908359  0.84196126  0.35200895    -0.39690
C3371       C  0.74184421  0.63413367  0.52682003    -0.11980
C3372       C  0.74405926  0.64434045  0.56748162     0.05030
C3373       C  0.73786860  0.62528284  0.60723938    -0.07260
C3374       C  0.73097673  0.59729200  0.60423186    -0.08010
C3375       C  0.72747691  0.58700287  0.56274936    -0.02560
C3376       C  0.73215510  0.60583724  0.52346471     0.04260
N3377       N  0.72760961  0.59675664  0.47949958     0.66760
H3378       H  0.74597172  0.64828467  0.49639047     0.15660
H3379       H  0.72861239  0.58351711  0.63432967     0.15370
N3380       N  0.73860164  0.63365676  0.65036279     0.74470
O3381       O  0.73673278  0.61482680  0.44536376    -0.38980
O3382       O  0.71208126  0.57081393  0.47393390    -0.38920
O3383       O  0.74225408  0.65716142  0.65398833    -0.39630
O3384       O  0.73552863  0.61741803  0.68544085    -0.39690
C3385       C  0.71833827  0.50082925  0.76079894    -0.11980
C3386       C  0.72008829  0.98139945  0.79081638     0.05030
C3387       C  0.72243497  0.96135965  0.77324066    -0.07260
C3388       C  0.72323223  0.96221233  0.72691927    -0.08010
C3389       C  0.72120103  0.98210716  0.69784383    -0.02560
C3390       C  0.71924810  0.50173529  0.71450244     0.04260
N3391       N  0.71862826  0.52365754  0.68624856     0.66760
H3392       H  0.71703770  0.51650446  0.77430385     0.15660
H3393       H  0.72534959  0.94711598  0.71329570     0.15370
N3394       N  0.72444413  0.94038613  0.80151413     0.74470
O3395       O  0.70451564  0.53201598  0.69712189    -0.38980
O3396       O  0.73541307  0.53779118  0.65469657    -0.38920
O3397       O  0.70908281  0.92710815  0.83491185    -0.39630
O3398       O  0.73735027  0.93119903  0.78849159    -0.39690
C3399       C  0.74147065  0.52242896  0.25570183    -0.11980
C3400       C  0.76164470  0.52350298  0.28449811     0.05030
C3401       C  0.78567553  0.52928887  0.26537550    -0.07260
C3402       C  0.78803305  0.53225640  0.21882675    -0.08010
C3403       C  0.76686480  0.52910179  0.19070385    -0.02560
C3404       C  0.74373248  0.52519770  0.20939837     0.04260
N3405       N  0.72208531  0.52352706  0.18184438     0.66760
H3406       H  0.72557562  0.01864142  0.27162003     0.15660
H3407       H  0.80563758  0.53492507  0.20482538     0.15370
N3408       N  0.80743019  0.53099938  0.29219707     0.74470
O3409       O  0.69923803  0.00732482  0.19891091    -0.38980
O3410       O  0.72750750  0.53974845  0.14589269    -0.38920
O3411       O  0.80462901  0.50845462  0.31087041    -0.39630
O3412       O  0.83105453  0.55358102  0.28820372    -0.39690
C3413       C  0.74985621  0.87748546  0.90235743    -0.11980
C3414       C  0.73078100  0.85355707  0.93030605     0.05030
C3415       C  0.70898622  0.85316849  0.94757514    -0.07260
C3416       C  0.70637383  0.87574702  0.93460245    -0.08010
C3417       C  0.72801274  0.90135985  0.91438107    -0.02560
C3418       C  0.75003080  0.90230776  0.89686884     0.04260
N3419       N  0.77383780  0.92859611  0.87796285     0.66760
H3420       H  0.76661147  0.87804011  0.88946011     0.15660
H3421       H  0.69015627  0.87537158  0.94935409     0.15370
N3422       N  0.69164352  0.83275662  0.98315164     0.74470
O3423       O  0.79637001  0.93122636  0.87728178    -0.38980
O3424       O  0.77274484  0.94948946  0.86255342    -0.38920
O3425       O  0.70214663  0.83305481  0.02115220    -0.39630
O3426       O  0.66669676  0.82362746  0.98152007    -0.39690
C3427       C  0.74162588  0.60360166  0.08052698    -0.11980
C3428       C  0.76773851  0.61096255  0.06981674     0.05030
C3429       C  0.78993084  0.63980465  0.07009802    -0.07260
C3430       C  0.78422540  0.66027397  0.07362828    -0.08010
C3431       C  0.75742811  0.65297315  0.07672133    -0.02560
C3432       C  0.73587254  0.62401508  0.08232427     0.04260
N3433       N  0.70786905  0.61489800  0.08546031     0.66760
H3434       H  0.72481159  0.58144722  0.08327173     0.15660
H3435       H  0.80067178  0.68250691  0.06963564     0.15370
N3436       N  0.81793070  0.64931604  0.06542288     0.74470
O3437       O  0.68873837  0.59011028  0.07787529    -0.38980
O3438       O  0.70194111  0.63078265  0.09804646    -0.38920
O3439       O  0.82421930  0.63588833  0.04575490    -0.39630
O3440       O  0.83686539  0.67208067  0.08014291    -0.39690
C3441       C  0.87746241  0.62420496  0.52179134    -0.11980
C3442       C  0.87873556  0.64968261  0.50929179     0.05030
C3443       C  0.86329288  0.65017904  0.47157247    -0.07260
C3444       C  0.84743164  0.62617762  0.44863301    -0.08010
C3445       C  0.84582762  0.60081079  0.46162121    -0.02560
C3446       C  0.86188052  0.60032317  0.49810729     0.04260
N3447       N  0.86221901  0.57577023  0.51258575     0.66760
H3448       H  0.88930367  0.62290519  0.54998051     0.15660
H3449       H  0.83557904  0.62724109  0.42021518     0.15370
N3450       N  0.86483939  0.67519310  0.45312991     0.74470
O3451       O  0.88468713  0.57812454  0.51576160    -0.38980
O3452       O  0.84151662  0.55384757  0.53143000    -0.38920
O3453       O  0.88647573  0.69500280  0.43355169    -0.39630
O3454       O  0.84296912  0.67336033  0.44242423    -0.39690
C3455       C  0.61039238  0.84549668  0.49816997    -0.11980
C3456       C  0.59568700  0.85040892  0.46379955     0.05030
C3457       C  0.60020576  0.87783524  0.45750108    -0.07260
C3458       C  0.61798825  0.89851380  0.48633996    -0.08010
C3459       C  0.63311241  0.89377769  0.52001654    -0.02560
C3460       C  0.62919031  0.86665302  0.52549504     0.04260
N3461       N  0.64424588  0.86012132  0.55842863     0.66760
H3462       H  0.60648927  0.82454524  0.50523478     0.15660
H3463       H  0.62169425  0.91942063  0.47998668     0.15370
N3464       N  0.58789189  0.88566152  0.42085575     0.74470
O3465       O  0.64816017  0.86789276  0.59683791    -0.38980
O3466       O  0.65177088  0.84456877  0.55037660    -0.38920
O3467       O  0.58318868  0.90418609  0.42399934    -0.39630
O3468       O  0.58551377  0.87740489  0.38326394    -0.39690
C3469       C  0.86160878  0.72627778  0.48063601    -0.11980
C3470       C  0.88169128  0.74776748  0.45061096     0.05030
C3471       C  0.87963388  0.76994622  0.43001099    -0.07260
C3472       C  0.85844011  0.77117493  0.44304935    -0.08010
C3473       C  0.83972696  0.75078928  0.47581505    -0.02560
C3474       C  0.84072249  0.72758603  0.49367038     0.04260
N3475       N  0.82121848  0.70554900  0.52549144     0.66760
H3476       H  0.86398147  0.71007180  0.49834517     0.15660
H3477       H  0.85670489  0.78836668  0.42811203     0.15370
N3478       N  0.89964625  0.79215840  0.39873111     0.74470
O3479       O  0.80899314  0.67995819  0.51836914    -0.38980
O3480       O  0.82122338  0.71098408  0.56439748    -0.38920
O3481       O  0.91009535  0.78655186  0.37093850    -0.39630
O3482       O  0.90440825  0.81670287  0.39505310    -0.39690
C3483       C  0.59913233  0.74464713  0.56672559    -0.11980
C3484       C  0.59430797  0.75794333  0.52846291     0.05030
C3485       C  0.61249043  0.77016173  0.49212814    -0.07260
C3486       C  0.63279737  0.76576904  0.49253356    -0.08010
C3487       C  0.63607216  0.74981297  0.52819623    -0.02560
C3488       C  0.61996642  0.74025607  0.56704529     0.04260
N3489       N  0.62307009  0.72464989  0.60554342     0.66760
H3490       H  0.58527413  0.73543528  0.59472420     0.15660
H3491       H  0.64551815  0.77421103  0.46338351     0.15370
N3492       N  0.60935876  0.78493384  0.45249383     0.74470
O3493       O  0.62207056  0.73007964  0.64399266    -0.38980
O3494       O  0.62144529  0.70220386  0.60157592    -0.38920
O3495       O  0.62516875  0.81164271  0.44640037    -0.39630
O3496       O  0.59779951  0.77160244  0.41904784    -0.39690
C3497       C  0.95982608  0.72064435  0.76671256    -0.11980
C3498       C  0.98441988  0.74414813  0.78111182     0.05030
C3499       C  0.00041255  0.76836298  0.75062145    -0.07260
C3500       C  0.99129050  0.76880896  0.70671033    -0.08010
C3501       C  0.96761038  0.74494422  0.69118920    -0.02560
C3502       C  0.95129445  0.72049203  0.72169361     0.04260
N3503       N  0.92663249  0.69549181  0.70765524     0.66760
H3504       H  0.94710404  0.70257780  0.79086132     0.15660
H3505       H  0.50456432  0.78726711  0.68289296     0.15370
N3506       N  0.52673615  0.79219651  0.76317063     0.74470
O3507       O  0.91620872  0.67190235  0.73158142    -0.38980
O3508       O  0.91384696  0.69722956  0.67339098    -0.38920
O3509       O  0.54153415  0.78811730  0.79095279    -0.39630
O3510       O  0.53664575  0.81669759  0.74261993    -0.39690
C3511       C  0.99501725  0.77097385  0.21135160    -0.11980
C3512       C  0.50261062  0.75513112  0.19332289     0.05030
C3513       C  0.51740884  0.74615195  0.22105960    -0.07260
C3514       C  0.52015985  0.74907024  0.26705036    -0.08010
C3515       C  0.51067416  0.76310558  0.28522387    -0.02560
C3516       C  0.99999512  0.77617917  0.25607744     0.04260
N3517       N  0.99441804  0.79506135  0.27112660     0.66760
H3518       H  0.98544963  0.77985207  0.19019166     0.15660
H3519       H  0.52965364  0.74027705  0.28866191     0.15370
N3520       N  0.53132104  0.73597395  0.20271901     0.74470
O3521       O  0.01106027  0.81314138  0.29667127    -0.38980
O3522       O  0.97463120  0.79596664  0.25505129    -0.38920
O3523       O  0.54727300  0.75062075  0.17024352    -0.39630
O3524       O  0.53216234  0.71598645  0.22406316    -0.39690
C3525       C  0.89235119  0.66154984  0.91046543    -0.11980
C3526       C  0.91232137  0.65663727  0.90340829     0.05030
C3527       C  0.90477210  0.62848714  0.90557450    -0.07260
C3528       C  0.87843748  0.60640737  0.91935581    -0.08010
C3529       C  0.86045856  0.61226429  0.93362623    -0.02560
C3530       C  0.86695003  0.63994347  0.92812677     0.04260
N3531       N  0.84862922  0.64654630  0.94152409     0.66760
H3532       H  0.89693299  0.68257647  0.90375284     0.15660
H3533       H  0.87238761  0.58462692  0.92101310     0.15370
N3534       N  0.92304281  0.62186278  0.89325375     0.74470
O3535       O  0.85789941  0.66906202  0.95882522    -0.38980
O3536       O  0.82316201  0.62994641  0.93669234    -0.38920
O3537       O  0.94054178  0.62291768  0.92097032    -0.39630
O3538       O  0.91761522  0.60891501  0.85951146    -0.39690
C3539       C  0.58272408  0.87273238  0.02526506    -0.11980
C3540       C  0.57796584  0.85489176  0.06481288     0.05030
C3541       C  0.59986159  0.86089483  0.09399476    -0.07260
C3542       C  0.62616261  0.88399982  0.08209836    -0.08010
C3543       C  0.63136659  0.89958875  0.03976066    -0.02560
C3544       C  0.60921477  0.89374010  0.01083493     0.04260
N3545       N  0.61282728  0.90681939  0.96565577     0.66760
H3546       H  0.56617519  0.86700180  0.00161264     0.15660
H3547       H  0.64292133  0.88818571  0.10450093     0.15370
N3548       N  0.59623088  0.84191126  0.13306696     0.74470
O3549       O  0.62445464  0.90229351  0.93833455    -0.38980
O3550       O  0.59710616  0.91418294  0.95036604    -0.38920
O3551       O  0.59392938  0.81907973  0.12929283    -0.39630
O3552       O  0.60174321  0.85085476  0.17077161    -0.39690
C3553       C  0.88790910  0.75407438  0.98103031    -0.11980
C3554       C  0.89469818  0.75008570  0.02587549     0.05030
C3555       C  0.87505841  0.74098373  0.05888107    -0.07260
C3556       C  0.84941032  0.73601574  0.04574844    -0.08010
C3557       C  0.84228939  0.73900531  0.00061036    -0.02560
C3558       C  0.86218260  0.74860081  0.96781766     0.04260
N3559       N  0.85699982  0.75352359  0.92127568     0.66760
H3560       H  0.90272666  0.76064600  0.95555830     0.15660
H3561       H  0.83515296  0.73104533  0.07130279     0.15370
N3562       N  0.88080249  0.73716062  0.10549464     0.74470
O3563       O  0.87659254  0.76996989  0.89468013    -0.38980
O3564       O  0.83307277  0.73973377  0.90573967    -0.38920
O3565       O  0.90507802  0.74960738  0.11955233    -0.39630
O3566       O  0.86163537  0.72328773  0.13346911    -0.39690
C3567       C  0.61975277  0.73689273  0.01503140    -0.11980
C3568       C  0.64460181  0.75743418  0.99301017     0.05030
C3569       C  0.64293335  0.76995999  0.94979698    -0.07260
C3570       C  0.61756650  0.76485991  0.93401463    -0.08010
C3571       C  0.59306401  0.74517504  0.95718581    -0.02560
C3572       C  0.59436099  0.73023574  0.99744223     0.04260
N3573       N  0.57031363  0.70919875  0.02244428     0.66760
H3574       H  0.62000925  0.72559629  0.04668352     0.15660
H3575       H  0.61679610  0.77631725  0.90297260     0.15370
N3576       N  0.66611092  0.78700145  0.92068479     0.74470
O3577       O  0.56645402  0.68550811  0.03678912    -0.38980
O3578       O  0.55659273  0.71640506  0.03857212    -0.38920
O3579       O  0.68338634  0.78099726  0.92028072    -0.39630
O3580       O  0.66687588  0.80475746  0.89002420    -0.39690
C3581       C  0.87717627  0.88177559  0.61086169    -0.11980
C3582       C  0.87479251  0.90121619  0.58018714     0.05030
C3583       C  0.85054417  0.89061652  0.55480303    -0.07260
C3584       C  0.82996182  0.86151173  0.56120713    -0.08010
C3585       C  0.83286591  0.84164761  0.58908886    -0.02560
C3586       C  0.85677102  0.85216994  0.61540569     0.04260
N3587       N  0.86073667  0.83360711  0.64682932     0.66760
H3588       H  0.89612493  0.88963634  0.62920261     0.15660
H3589       H  0.81190262  0.85392674  0.54138355     0.15370
N3590       N  0.84703469  0.90809241  0.51963307     0.74470
O3591       O  0.88448064  0.84102264  0.65922454    -0.38980
O3592       O  0.84060127  0.81141915  0.66641447    -0.38920
O3593       O  0.86673116  0.92730859  0.49516874    -0.39630
O3594       O  0.82334755  0.90135823  0.50832850    -0.39690
C3595       C  0.59261424  0.62253501  0.37822478    -0.11980
C3596       C  0.59230890  0.59863992  0.39896998     0.05030
C3597       C  0.61526428  0.60352589  0.42386030    -0.07260
C3598       C  0.63646500  0.63136271  0.43032435    -0.08010
C3599       C  0.63635501  0.65545059  0.41233882    -0.02560
C3600       C  0.61388463  0.65074149  0.38554062     0.04260
N3601       N  0.61138239  0.67360368  0.36738706     0.66760
H3602       H  0.57441927  0.61895522  0.36087502     0.15660
H3603       H  0.65312855  0.63393470  0.45132319     0.15370
N3604       N  0.61597833  0.58036840  0.44729512     0.74470
O3605       O  0.60127923  0.67329325  0.32899570    -0.38980
O3606       O  0.61383624  0.69063016  0.39253321    -0.38920
O3607       O  0.60736340  0.55841577  0.42876908    -0.39630
O3608       O  0.62727286  0.58273356  0.48509520    -0.39690
C3609       C  0.84680799  0.49513564  0.45186733    -0.11980
C3610       C  0.84043849  0.99776176  0.49921290     0.05030
C3611       C  0.85880010  0.99663912  0.53017197    -0.07260
C3612       C  0.88239377  0.00117914  0.51415857    -0.08010
C3613       C  0.89266420  0.51079658  0.46886332    -0.02560
C3614       C  0.87213144  0.50444840  0.43732424     0.04260
N3615       N  0.87659560  0.50789396  0.39036028     0.66760
H3616       H  0.83142811  0.49011318  0.42617886     0.15660
H3617       H  0.89642820  0.00020540  0.53823346     0.15370
N3618       N  0.85448209  0.99180106  0.57743189     0.74470
O3619       O  0.86162541  0.48731745  0.36785249    -0.38980
O3620       O  0.89213385  0.53250315  0.37036663    -0.38920
O3621       O  0.83240587  0.97034134  0.59372784    -0.39630
O3622       O  0.87700949  0.51306096  0.60102104    -0.39690
C3623       C  0.61439680  0.98362368  0.45882818    -0.11980
C3624       C  0.63788321  0.00447828  0.47925624     0.05030
C3625       C  0.63435536  0.51956086  0.51067528    -0.07260
C3626       C  0.60912938  0.51473895  0.51801773    -0.08010
C3627       C  0.58581696  0.49445879  0.49651256    -0.02560
C3628       C  0.58889071  0.97734833  0.46887052     0.04260
N3629       N  0.56493263  0.95385779  0.45088996     0.66760
H3630       H  0.61564276  0.97060882  0.43784645     0.15660
H3631       H  0.60797433  0.52769005  0.53925623     0.15370
N3632       N  0.65772295  0.54099577  0.53268206     0.74470
O3633       O  0.56517360  0.94826954  0.41218688    -0.38980
O3634       O  0.54540168  0.93581502  0.47653409    -0.38920
O3635       O  0.66900169  0.56651125  0.51601946    -0.39630
O3636       O  0.66113849  0.53576112  0.57360069    -0.39690
C3637       C  0.96966878  0.84977964  0.45867593    -0.11980
C3638       C  0.97242433  0.84530043  0.50533090     0.05030
C3639       C  0.98169202  0.86834989  0.53001633    -0.07260
C3640       C  0.98818285  0.89470863  0.50756757    -0.08010
C3641       C  0.98604399  0.89950028  0.46090389    -0.02560
C3642       C  0.97669592  0.87647447  0.43599281     0.04260
N3643       N  0.47553443  0.88031489  0.38765985     0.66760
H3644       H  0.96348304  0.83263893  0.43928440     0.15660
H3645       H  0.99464521  0.91172432  0.52732525     0.15370
N3646       N  0.98351051  0.86530129  0.57797827     0.74470
O3647       O  0.46560929  0.85928640  0.36597878    -0.38980
O3648       O  0.98698237  0.90448019  0.36645456    -0.38920
O3649       O  0.99022285  0.84942522  0.59846491    -0.39630
O3650       O  0.97877150  0.87903260  0.60025036    -0.39690
C3651       C  0.96874227  0.60049452  0.48284097    -0.11980
C3652       C  0.98350015  0.60005344  0.52125779     0.05030
C3653       C  0.50264862  0.62600932  0.53526741    -0.07260
C3654       C  0.50910507  0.65203133  0.51074586    -0.08010
C3655       C  0.99581916  0.65304803  0.47243982    -0.02560
C3656       C  0.97481815  0.62626767  0.45803463     0.04260
N3657       N  0.95994701  0.62482646  0.41736562     0.66760
H3658       H  0.95368508  0.58056421  0.46994376     0.15660
H3659       H  0.52444959  0.67185247  0.52365169     0.15370
N3660       N  0.51784329  0.62689547  0.57521442     0.74470
O3661       O  0.93577927  0.60373894  0.41296217    -0.38980
O3662       O  0.97180616  0.64303730  0.38408540    -0.38920
O3663       O  0.54210816  0.64781986  0.57947942    -0.39630
O3664       O  0.50640791  0.60795628  0.60782956    -0.39690
C3665       C  0.95291638  0.97851407  0.76858764    -0.11980
C3666       C  0.97361760  0.97650433  0.79050461     0.05030
C3667       C  0.49365588  0.97703343  0.76638134    -0.07260
C3668       C  0.49220507  0.98041392  0.71995670    -0.08010
C3669       C  0.97110470  0.98365856  0.69600844    -0.02560
C3670       C  0.95143588  0.98217654  0.72179089     0.04260
N3671       N  0.93047317  0.98526194  0.70173701     0.66760
H3672       H  0.93864220  0.97882475  0.78809217     0.15660
H3673       H  0.50753123  0.98120297  0.70165644     0.15370
N3674       N  0.51611340  0.97661621  0.78683671     0.74470
O3675       O  0.90597062  0.96691088  0.71298419    -0.38980
O3676       O  0.93838367  0.50928774  0.68273268    -0.38920
O3677       O  0.51216669  0.95865017  0.81975205    -0.39630
O3678       O  0.53821620  0.49103550  0.76589752    -0.39690
C3679       C  0.98563701  0.51702258  0.20703195    -0.11980
C3680       C  0.00893096  0.52119217  0.19047468     0.05030
C3681       C  0.52635036  0.52117045  0.21987622    -0.07260
C3682       C  0.52122999  0.51657683  0.26560840    -0.08010
C3683       C  0.49684630  0.51102566  0.28145645    -0.02560
C3684       C  0.98056458  0.51105488  0.25245739     0.04260
N3685       N  0.95423229  0.50204572  0.26701913     0.66760
H3686       H  0.96997309  0.51564390  0.18422210     0.15660
H3687       H  0.53638440  0.51731816  0.28890003     0.15370
N3688       N  0.55108713  0.52588981  0.20447949     0.74470
O3689       O  0.94493438  0.51688655  0.25416180    -0.38980
O3690       O  0.93689369  0.97661189  0.28063343    -0.38920
O3691       O  0.56115681  0.53982010  0.16712559    -0.39630
O3692       O  0.56402412  0.51779124  0.22948621    -0.39690
C3693       C  0.86630375  0.89366872  0.95307257    -0.11980
C3694       C  0.88921991  0.89765169  0.97745959     0.05030
C3695       C  0.88501832  0.88647510  0.02329002    -0.07260
C3696       C  0.85879909  0.87172890  0.04214410    -0.08010
C3697       C  0.83565864  0.86659308  0.01747185    -0.02560
C3698       C  0.83984107  0.87848908  0.97188435     0.04260
N3699       N  0.81787295  0.87509625  0.94343990     0.66760
H3700       H  0.86924215  0.90330695  0.91880015     0.15660
H3701       H  0.85611640  0.86252696  0.07666082     0.15370
N3702       N  0.90667081  0.88925894  0.05178773     0.74470
O3703       O  0.80005497  0.87743404  0.95781781    -0.38980
O3704       O  0.81859889  0.87425007  0.90218836    -0.38920
O3705       O  0.90659890  0.89166973  0.09256793    -0.39630
O3706       O  0.92166586  0.88245761  0.03932574    -0.39690
C3707       C  0.65168438  0.62077251  0.00750757    -0.11980
C3708       C  0.65289628  0.64198308  0.97691911     0.05030
C3709       C  0.62912647  0.64282406  0.97137681    -0.07260
C3710       C  0.60660310  0.62453824  0.99916787    -0.08010
C3711       C  0.60512213  0.60300664  0.02878031    -0.02560
C3712       C  0.62809596  0.60100400  0.03271399     0.04260
N3713       N  0.62740015  0.57814356  0.06021132     0.66760
H3714       H  0.66937342  0.61978755  0.01255900     0.15660
H3715       H  0.58871443  0.62516959  0.99379857     0.15370
N3716       N  0.62693620  0.66175855  0.93769928     0.74470
O3717       O  0.63698120  0.56592019  0.04580182    -0.38980
O3718       O  0.61759328  0.57030621  0.09900459    -0.38920
O3719       O  0.63386071  0.66433911  0.89813271    -0.39630
O3720       O  0.61279452  0.67086807  0.94511000    -0.39690
C3721       C  0.91787864  0.55852835  0.04170632    -0.11980
C3722       C  0.91781070  0.53391855  0.05547034     0.05030
C3723       C  0.89279319  0.00958889  0.07299866    -0.07260
C3724       C  0.86858751  0.00915211  0.07076127    -0.08010
C3725       C  0.86761364  0.53282046  0.05417645    -0.02560
C3726       C  0.89367331  0.55868969  0.04227873     0.04260
N3727       N  0.89640082  0.58524414  0.02977547     0.66760
H3728       H  0.93655267  0.57746392  0.02799228     0.15660
H3729       H  0.84967982  0.98948410  0.08196962     0.15370
N3730       N  0.89128908  0.98438692  0.09233733     0.74470
O3731       O  0.91886455  0.60837123  0.03504464    -0.38980
O3732       O  0.87661642  0.58601853  0.01381772    -0.38920
O3733       O  0.91101991  0.98639481  0.11488592    -0.39630
O3734       O  0.86949354  0.96014057  0.09011729    -0.39690
C3735       C  0.58898141  0.96998886  0.97173011    -0.11980
C3736       C  0.57679407  0.97146452  0.93054038     0.05030
C3737       C  0.59137512  0.97555769  0.89171673    -0.07260
C3738       C  0.61634675  0.97688245  0.89596184    -0.08010
C3739       C  0.62867135  0.97633474  0.93775710    -0.02560
C3740       C  0.61431202  0.97280420  0.97605518     0.04260
N3741       N  0.62560775  0.97314405  0.02004988     0.66760
H3742       H  0.57928801  0.96837486  0.00166022     0.15660
H3743       H  0.62740369  0.98073044  0.86620671     0.15370
N3744       N  0.58241984  0.98031766  0.84791437     0.74470
O3745       O  0.62086348  0.98290368  0.05014280    -0.38980
O3746       O  0.63875477  0.96198232  0.02999854    -0.38920
O3747       O  0.56959611  0.49204652  0.84115996    -0.39630
O3748       O  0.58905672  0.97478238  0.81432465    -0.39690
C3749       C  0.96681982  0.86568301  0.01535959    -0.11980
C3750       C  0.49149940  0.88928818  0.02900363     0.05030
C3751       C  0.51641270  0.89358460  0.01894071    -0.07260
C3752       C  0.51600275  0.87635096  0.99038372    -0.08010
C3753       C  0.99131988  0.85348769  0.97543718    -0.02560
C3754       C  0.96643810  0.84851099  0.98693558     0.04260
N3755       N  0.94083042  0.82595784  0.97029536     0.66760
H3756       H  0.94788896  0.86296690  0.02225768     0.15660
H3757       H  0.53477982  0.87880218  0.98310534     0.15370
N3758       N  0.54194685  0.91466397  0.03807127     0.74470
O3759       O  0.91864318  0.81810517  0.98758688    -0.38980
O3760       O  0.94008881  0.81612929  0.93510680    -0.38920
O3761       O  0.54268492  0.92947934  0.06582612    -0.39630
O3762       O  0.56326119  0.91563350  0.03240979    -0.39690
C3763       C  0.51411214  0.65283471  0.94697215    -0.11980
C3764       C  0.00420483  0.64921209  0.99017414     0.05030
C3765       C  0.00215484  0.62824863  0.02303259    -0.07260
C3766       C  0.00960958  0.61096185  0.01129787    -0.08010
C3767       C  0.01689777  0.61290586  0.96727950    -0.02560
C3768       C  0.52017716  0.63464648  0.93477778     0.04260
N3769       N  0.53004994  0.63877422  0.89059558     0.66760
H3770       H  0.51687792  0.66986121  0.92235416     0.15660
H3771       H  0.00798700  0.59454539  0.03597814     0.15370
N3772       N  0.99108293  0.62285666  0.06669925     0.74470
O3773       O  0.52407153  0.65093970  0.85851519    -0.38980
O3774       O  0.54698582  0.63299584  0.88423375    -0.38920
O3775       O  0.97151947  0.62499191  0.07170951    -0.39630
O3776       O  0.99779965  0.61156701  0.09908761    -0.39690
loop_ 
_geom_bond_atom_site_label_1 
_geom_bond_atom_site_label_2 
_geom_bond_distance 
_geom_bond_site_symmetry_2 
_ccdc_geom_bond_type 
O1          Zr13   2.365   1_554  S
O1            C3   1.261       .  A
O2        Zr1927   2.509       .  S
O2            C3   1.304       .  A
C3          C879   1.478       .  S
O4          Zr16   2.429       .  S
O4          C950   1.286   1_545  A
O5          Zr40   2.431       .  S
O5            C6   1.289       .  A
C6          O948   1.286       .  A
C6         C2722   1.470       .  S
O7          Zr16   2.436   1_455  S
O7         C1897   1.281       .  A
O8          Zr39   2.373   1_556  S
O8            C9   1.259       .  A
C9         O1895   1.281       .  A
C9          C935   1.441       .  S
O10         Zr13   2.402       .  S
O10         C956   1.277   1_545  A
O11         Zr40   2.597   1_455  S
O11          C12   1.319       .  A
C12         O954   1.277       .  A
C12         C904   1.536       .  S
Zr13         O14   2.436       .  S
Zr13         O15   2.436   1_556  S
Zr13         O19   2.360       .  S
Zr13         O20   2.375       .  S
Zr13         O45   2.398   1_556  S
Zr13        O987   2.336   1_546  S
O14          H57   0.990       .  S
O15          H56   0.989       .  S
O15          H60   0.989       .  S
Zr16         O17   2.435   1_655  S
Zr16       O1906   2.433       .  S
Zr16         O20   2.379   1_655  S
Zr16         O19   2.360   1_655  S
Zr16       O1932   2.393       .  S
Zr16       O2878   2.370   1_545  S
O17          H58   0.990       .  S
O17          H61   0.991       .  S
O18       Zr1904   2.433       .  S
O18          H51   0.990       .  S
O19       Zr1927   2.399   1_556  S
O20        Zr984   2.381   1_445  S
O20          H47   0.965       .  S
O21         Zr33   2.451       .  S
O21        C1911   1.288       .  A
O22         Zr40   2.332       .  S
O22          C23   1.276   1_556  A
C23        O1909   1.288       .  A
C23         C918   1.437       .  S
O24         Zr36   2.413       .  S
O24         C970   1.281       .  A
O25         Zr39   2.607       .  S
O25          C26   1.321       .  A
C26         O968   1.281       .  A
C26         C890   1.550       .  S
O27         Zr36   2.389   1_556  S
O27          C29   1.266       .  A
O28       Zr1928   2.531       .  S
O28          C29   1.296       .  A
C29         C862   1.514       .  S
O30         Zr33   2.436       .  S
O30         C976   1.288       .  A
O31         Zr39   2.390       .  S
O31          C32   1.283       .  A
C32         O974   1.288   1_545  A
C32         C848   1.442       .  S
Zr33         O34   2.434       .  S
Zr33       O1923   2.435       .  S
Zr33         O41   2.338       .  S
Zr33         O42   2.381       .  S
Zr33       O2877   2.315       .  S
Zr33       O1931   2.367       .  S
O34          H54   0.989       .  S
O34          H59   0.991       .  S
O35       Zr1921   2.435   1_455  S
O35          H55   0.989       .  S
Zr36         O37   2.436       .  S
Zr36         O38   2.440   1_554  S
Zr36         O42   2.352       .  S
Zr36         O41   2.378       .  S
Zr36         O46   2.394   1_554  S
Zr36        O988   2.366   1_554  S
O37          H53   0.989       .  S
O38          H52   0.990       .  S
O38          H62   0.990   1_556  S
Zr39       O1890   2.510       .  S
Zr39         O44   2.394   1_554  S
Zr39       O1907   2.400   1_554  S
Zr39        O986   2.375   1_545  S
Zr39       O1933   2.400       .  S
Zr40       O1916   2.530       .  S
Zr40         O43   2.373   1_656  S
Zr40        O964   2.380   1_655  S
Zr40       O1929   2.422   1_556  S
Zr40       O1934   2.413       .  S
O41       Zr1928   2.423   1_554  S
O41          H49   0.967       .  S
O42        Zr983   2.374       .  S
O43        Zr957   2.336   1_554  S
O43       Zr1921   2.367   1_455  S
O44       Zr1904   2.393       .  S
O44        Zr980   2.366   1_546  S
O44          H48   0.964       .  S
O45       Zr2865   2.314   1_445  S
O45       Zr1927   2.399       .  S
O45          H50   0.965       .  S
O46       Zr2848   2.370       .  S
O46       Zr1928   2.413       .  S
O63         Zr75   2.402       .  S
O63        C1953   1.270       .  A
O64       Zr1045   2.537       .  S
O64          C65   1.303   1_455  A
C65        O1951   1.270       .  A
C65        C2697   1.506       .  S
O66         Zr78   2.399       .  S
O66          C68   1.262       .  A
O67        Zr102   2.336       .  S
O67          C68   1.248       .  A
C68         C781   1.453       .  S
O69         Zr78   2.422       .  S
O69        C1959   1.284       .  A
O70        Zr101   2.397   1_545  S
O70          C71   1.284   1_455  A
C71        O1957   1.285       .  A
C71         C851   1.473       .  S
O72         Zr75   2.366       .  S
O72          C74   1.272       .  A
O73       Zr1046   2.501       .  S
O73          C74   1.303       .  A
C74         C750   1.477       .  S
Zr75         O76   2.436       .  S
Zr75         O77   2.437       .  S
Zr75         O81   2.366       .  S
Zr75         O82   2.342       .  S
Zr75        O105   2.371       .  S
Zr75       O1995   2.363       .  S
O76         H119   0.990       .  S
O77         H118   0.989       .  S
O77         H122   0.989       .  S
Zr78         O80   2.436       .  S
Zr78       O1023   2.433   1_545  S
Zr78        O108   2.403       .  S
Zr78       O1026   2.418   1_545  S
Zr78       O1025   2.372   1_545  S
Zr78       O1994   2.349       .  S
O79       Zr1022   2.432       .  S
O79         H120   0.989       .  S
O79         H123   0.991       .  S
O80         H113   0.990       .  S
O81       Zr1022   2.387       .  S
O81       Zr2933   2.391       .  S
O82       Zr1022   2.407       .  S
O82       Zr1046   2.417       .  S
O82         H109   0.968       .  S
O83       Zr2927   2.436       .  S
O83          C85   1.290       .  A
O84       Zr1046   2.428       .  S
O84          C85   1.290       .  A
C85         C837   1.495       .  S
O86         Zr98   2.345       .  S
O86          C88   1.271       .  A
O87        Zr101   2.512   1_545  S
O87          C88   1.304       .  A
C88         C764   1.475       .  S
O89       Zr1986   2.407       .  S
O89          C91   1.273       .  A
O90        Zr102   2.530       .  S
O90          C91   1.305       .  A
C91         C820   1.515       .  S
O92         Zr95   2.490       .  S
O92          C94   1.298       .  A
O93        Zr101   2.345       .  S
O93          C94   1.275       .  A
C94         C795   1.462       .  S
Zr95       O2915   2.433   1_455  S
Zr95         O96   2.434   1_565  S
Zr95       O1041   2.433       .  S
Zr95        O104   2.354   1_565  S
Zr95       O1991   2.367   1_465  S
Zr95       O1051   2.336   1_455  S
Zr95       O2937   2.371   1_455  S
O96         H116   0.990       .  S
O96         H121   0.990       .  S
O97       Zr1039   2.433       .  S
O97        H2005   0.990   1_455  S
Zr98       O1977   2.400       .  S
Zr98         O99   2.434       .  S
Zr98        O100   2.436       .  S
Zr98        O104   2.368       .  S
Zr98        O106   2.378       .  S
Zr98       O1991   2.356   1_455  S
Zr98       O1996   2.345   1_455  S
O99         H115   0.990       .  S
O100        H124   0.990       .  S
O100       H2002   0.989       .  S
Zr101      O1008   2.540       .  S
Zr101       O104   2.392   1_565  S
Zr101       O106   2.391   1_565  S
Zr101      O2913   2.386   1_455  S
Zr101      O1051   2.387   1_455  S
Zr102      O1017   2.502   1_545  S
Zr102      O1028   2.426   1_545  S
Zr102       O103   2.393       .  S
Zr102       O108   2.388       .  S
Zr102      O1026   2.422   1_545  S
Zr102      O1049   2.386   1_545  S
O103      Zr1983   2.368   1_545  S
O103      Zr1986   2.356       .  S
O103        H111   0.966       .  S
O105      Zr2927   2.372       .  S
O105      Zr1046   2.388       .  S
O106      Zr1966   2.359   1_455  S
O106        H110   0.967       .  S
O107      Zr1963   2.365       .  S
O107      Zr1039   2.335   1_655  S
O107      Zr1045   2.385   1_655  S
O107        H112   0.960   1_655  S
O108      Zr1986   2.339       .  S
H114       O1988   0.989       .  S
H117       O1985   0.990       .  S
O125       Zr137   2.394       .  S
O125        C127   1.273       .  A
O126      Zr2051   2.516   1_455  S
O126        C127   1.300       .  A
C127        C739   1.497       .  S
O128       Zr140   2.490       .  S
O128        C130   1.296       .  A
O129       Zr164   2.416       .  S
O129        C130   1.289       .  A
C130        C680   1.499   1_655  S
O131      Zr2028   2.459       .  S
O131        C133   1.288   1_554  A
O132       Zr163   2.344       .  S
O132        C133   1.266       .  A
C133        C932   1.451       .  S
O134       Zr137   2.387   1_554  S
O134        C136   1.273       .  A
O135       Zr164   2.448   1_455  S
O135        C136   1.289       .  A
C136        C708   1.450       .  S
Zr137       O138   2.434   1_556  S
Zr137       O139   2.435       .  S
Zr137       O143   2.359   1_556  S
Zr137       O144   2.372   1_556  S
Zr137       O167   2.354       .  S
Zr137       O169   2.370       .  S
O138        H181   0.990       .  S
O139        H180   0.990       .  S
O139        H184   0.991       .  S
Zr140      O2019   2.459   1_655  S
Zr140       O141   2.436   1_655  S
Zr140      O2030   2.432       .  S
Zr140       O144   2.351   1_655  S
Zr140       O143   2.391   1_655  S
Zr140      O2056   2.372   1_554  S
Zr140      O2058   2.380       .  S
O141        H182   0.990       .  S
O141        H185   0.989       .  S
O142      Zr2028   2.432       .  S
O142        H175   0.989       .  S
O143      Zr2051   2.377   1_454  S
O144       Zr164   2.389   1_455  S
O144        H171   0.963       .  S
O145       Zr157   2.435       .  S
O145        C147   1.285       .  A
O146       Zr164   2.340       .  S
O146       C2035   1.275   1_554  A
C147       O2034   1.275   1_556  A
C147        C921   1.428       .  S
O148       Zr160   2.421       .  S
O148        C150   1.271       .  A
O149       Zr163   2.424       .  S
O149        C150   1.272       .  A
C150        C694   1.471       .  S
O151       Zr160   2.392   1_554  S
O151        C153   1.275       .  A
O152      Zr2052   2.513       .  S
O152        C153   1.302       .  A
C153        C722   1.492       .  S
O154       Zr157   2.426       .  S
O154        C156   1.285       .  A
O155       Zr163   2.444       .  S
O155        C156   1.291       .  A
C156        C666   1.472       .  S
Zr157       O158   2.437       .  S
Zr157      O2047   2.434       .  S
Zr157       O165   2.376       .  S
Zr157       O166   2.337       .  S
Zr157      O2057   2.379       .  S
Zr157      O2055   2.358       .  S
O158        H178   0.989       .  S
O158        H183   0.991       .  S
O159      Zr2045   2.434   1_455  S
O159        H179   0.990       .  S
Zr160       O161   2.433       .  S
Zr160       O162   2.440   1_556  S
Zr160       O166   2.356       .  S
Zr160       O165   2.348       .  S
Zr160       O170   2.377   1_556  S
Zr160       O168   2.357       .  S
O161        H177   0.990       .  S
O162        H176   0.989       .  S
O162        H186   0.989       .  S
Zr163      O2014   2.516       .  S
Zr163       O166   2.385       .  S
Zr163       O168   2.445       .  S
Zr163      O2031   2.377   1_556  S
Zr163      O2057   2.386       .  S
Zr164      O2040   2.514       .  S
Zr164       O167   2.396   1_654  S
Zr164      O2053   2.367   1_554  S
Zr164      O2058   2.369       .  S
O165      Zr2052   2.367   1_556  S
O165        H173   0.964       .  S
O167      Zr2045   2.358   1_455  S
O168      Zr2028   2.372   1_556  S
O168        H172   0.967       .  S
O169      Zr2045   2.379   1_455  S
O169      Zr2051   2.386   1_455  S
O169        H174   0.966       .  S
O170      Zr2028   2.380       .  S
O170      Zr2052   2.369       .  S
O187       Zr199   2.450       .  S
O187        C189   1.289       .  A
O188       Zr225   2.327       .  S
O188        C189   1.272       .  A
C189        C652   1.448       .  S
O190       Zr202   2.369       .  S
O190        C192   1.255       .  A
O191       Zr226   2.549       .  S
O191        C192   1.298       .  A
C192        C610   1.510       .  S
O193       Zr202   2.375       .  S
O193       C2083   1.264       .  A
O194       Zr225   2.559       .  S
O194        C195   1.306   1_455  A
C195       O2081   1.264       .  A
C195       C2711   1.517       .  S
O196      Zr2087   2.406       .  S
O196        C198   1.283       .  A
O197       Zr226   2.464       .  S
O197        C198   1.296       .  A
C198        C669   1.474       .  S
Zr199      O2084   2.406   1_455  S
Zr199       O200   2.435       .  S
Zr199       O201   2.435       .  S
Zr199       O205   2.361       .  S
Zr199       O231   2.339       .  S
Zr199      O2094   2.350   1_455  S
Zr199      O2117   2.382   1_455  S
O200        H243   0.990       .  S
O201        H242   0.990       .  S
O201        H246   0.990       .  S
Zr202       O203   2.436       .  S
Zr202       O204   2.435       .  S
Zr202       O206   2.390       .  S
Zr202       O230   2.374       .  S
Zr202       O232   2.367       .  S
Zr202      O2093   2.355       .  S
O203        H244   0.990       .  S
O203        H247   0.990       .  S
O204        H237   0.990       .  S
O205       Zr225   2.383       .  S
O205      Zr2090   2.356   1_455  S
O206       Zr226   2.406       .  S
O206      Zr2087   2.350       .  S
O206        H233   0.967       .  S
O207      Zr2107   2.405       .  S
O207        C209   1.272       .  A
O208       Zr226   2.536       .  S
O208        C209   1.303       .  A
C209        C806   1.506       .  S
O210       Zr222   2.416       .  S
O210       C2100   1.284       .  A
O211       Zr225   2.463       .  S
O211        C212   1.296       .  A
C212       O2098   1.284   1_455  A
C212        C683   1.492       .  S
O213       Zr222   2.460       .  S
O213        C215   1.291       .  A
O214       Zr226   2.324       .  S
O214        C215   1.275       .  A
C215        C638   1.441       .  S
O216       Zr219   2.385       .  S
O216        C218   1.265       .  A
O217       Zr225   2.523       .  S
O217        C218   1.296       .  A
C218        C624   1.519       .  S
Zr219      O2095   2.406   1_455  S
Zr219       O220   2.436       .  S
Zr219       O221   2.435       .  S
Zr219       O228   2.386       .  S
Zr219       O231   2.359       .  S
Zr219      O2115   2.354   1_455  S
Zr219      O2117   2.367   1_455  S
O220        H245   0.989       .  S
O220       H2128   0.989       .  S
O221        H241   0.990       .  S
Zr222       O223   2.434       .  S
Zr222       O224   2.436       .  S
Zr222       O227   2.340       .  S
Zr222       O232   2.357       .  S
Zr222       O230   2.369       .  S
Zr222      O2116   2.365       .  S
O223        H239   0.990       .  S
O224        H238   0.990       .  S
O224        H248   0.989       .  S
Zr225       O228   2.401       .  S
Zr225       O231   2.419       .  S
Zr225      O2118   2.387   1_455  S
Zr226       O227   2.401       .  S
Zr226       O229   2.392       .  S
Zr226       O232   2.397       .  S
O227      Zr2107   2.354       .  S
O227        H235   0.963       .  S
O228      Zr2110   2.365   1_455  S
O229      Zr2087   2.383       .  S
O229      Zr2107   2.366       .  S
O230      Zr2113   2.386       .  S
O230        H234   0.965       .  S
O231        H236   0.965       .  S
H240       O2108   0.989       .  S
O249       Zr261   2.427       .  S
O249        C251   1.285       .  A
O250       Zr287   2.398       .  S
O250        C251   1.281   1_556  A
C251        C711   1.469       .  S
O252       Zr264   2.408   1_554  S
O252        C254   1.283       .  A
O253       Zr288   2.496       .  S
O253        C254   1.300       .  A
C254        C596   1.503       .  S
O255       Zr264   2.454       .  S
O255       C1201   1.289   1_545  A
O256       Zr287   2.535       .  S
O256        C257   1.307       .  A
C257       O1199   1.289       .  A
C257        C907   1.534       .  S
O258       Zr261   2.413       .  S
O258       C1204   1.283       .  A
O259       Zr288   2.465       .  S
O259        C260   1.295       .  A
C260       O1202   1.283       .  A
C260        C571   1.479       .  S
Zr261       O262   2.433       .  S
Zr261       O263   2.434       .  S
Zr261       O267   2.362       .  S
Zr261       O291   2.384       .  S
Zr261       O293   2.362       .  S
Zr261      O1212   2.361       .  S
O262        H305   0.991       .  S
O263        H304   0.991       .  S
O263        H308   0.990       .  S
Zr264       O265   2.438   1_556  S
Zr264       O266   2.434       .  S
Zr264       O268   2.374   1_556  S
Zr264       O292   2.361       .  S
Zr264       O294   2.380       .  S
Zr264      O1211   2.354   1_546  S
O265        H306   0.990       .  S
O265        H309   0.990       .  S
O266        H299   0.990       .  S
O267       Zr287   2.365   1_554  S
O267      Zr1208   2.354   1_554  S
O268       Zr288   2.404       .  S
O268      Zr1205   2.360   1_545  S
O268        H295   0.961       .  S
O269      Zr1225   2.474   1_544  S
O269        C271   1.292       .  A
O270       Zr288   2.555       .  S
O270        C271   1.311       .  A
C271        C893   1.559       .  S
O272       Zr284   2.438       .  S
O272       C1218   1.287   1_545  A
O273       Zr287   2.423       .  S
O273        C274   1.286       .  A
C274       O1216   1.288       .  A
C274        C554   1.471       .  S
O275       Zr284   2.374       .  S
O275        C277   1.275       .  A
O276       Zr288   2.434   1_556  S
O276        C277   1.291       .  A
C277        C697   1.438       .  S
O278       Zr281   2.389       .  S
O278        C280   1.278       .  A
O279       Zr287   2.459       .  S
O279        C280   1.296       .  A
C280        C585   1.470       .  S
Zr281      O1213   2.474   1_556  S
Zr281       O282   2.441       .  S
Zr281       O283   2.434   1_556  S
Zr281       O290   2.384       .  S
Zr281       O293   2.391   1_556  S
Zr281       O291   2.363   1_556  S
Zr281      O1233   2.339       .  S
O282        H307   0.990       .  S
O282       H1246   0.991       .  S
O283        H303   0.990       .  S
Zr284       O285   2.434       .  S
Zr284       O286   2.433       .  S
Zr284       O289   2.383       .  S
Zr284       O294   2.381       .  S
Zr284       O292   2.364       .  S
Zr284      O1234   2.335   1_545  S
O285        H301   0.991       .  S
O286        H300   0.990       .  S
O286        H310   0.990       .  S
Zr287       O290   2.386       .  S
Zr287       O293   2.416   1_556  S
Zr287      O1236   2.379       .  S
Zr288       O289   2.393   1_554  S
Zr288       O294   2.422   1_554  S
Zr288      O1235   2.395   1_545  S
O289      Zr1225   2.339   1_545  S
O289        H297   0.964       .  S
O290      Zr1228   2.336       .  S
O291      Zr1232   2.394       .  S
O292      Zr1231   2.379   1_545  S
O292        H296   0.968       .  S
O293        H298   0.968       .  S
H302       O1226   0.991       .  S
O311       Zr323   2.364       .  S
O311        C313   1.270       .  A
O312      Zr1293   2.547   1_545  S
O312        C313   1.308       .  A
C313        C543   1.500       .  S
O314      Zr1270   2.494       .  S
O314        C316   1.301       .  A
O315      Zr1294   2.388       .  S
O315        C316   1.281       .  A
C316        C568   1.496       .  S
O317       Zr326   2.508       .  S
O317        C319   1.302       .  A
O318       Zr349   2.343       .  S
O318        C319   1.273       .  A
C319        C792   1.467       .  S
O320       Zr323   2.371       .  S
O320        C322   1.255       .  A
O321      Zr1294   2.513       .  S
O321        C322   1.289       .  A
C322        C613   1.492       .  S
Zr323       O324   2.432       .  S
Zr323       O325   2.434       .  S
Zr323       O329   2.360       .  S
Zr323       O330   2.381       .  S
Zr323       O353   2.354       .  S
Zr323       O355   2.360       .  S
O324        H367   0.990       .  S
O325        H366   0.989       .  S
O325        H370   0.990       .  S
Zr326      O1258   2.487       .  S
Zr326       O328   2.436       .  S
Zr326      O1271   2.434       .  S
Zr326       O354   2.346       .  S
Zr326       O356   2.369       .  S
Zr326      O1274   2.349       .  S
Zr326      O1273   2.370       .  S
O327      Zr1270   2.434       .  S
O327        H368   0.990       .  S
O327        H371   0.990       .  S
O328        H361   0.990       .  S
O329      Zr1270   2.375       .  S
O329      Zr1293   2.379   1_545  S
O330      Zr1270   2.348       .  S
O330      Zr1294   2.396       .  S
O330        H357   0.967       .  S
O331       Zr343   2.451       .  S
O331        C333   1.262       .  A
O332       Zr350   2.344       .  S
O332        C333   1.252       .  A
C333        C778   1.478       .  S
O334       Zr346   2.390       .  S
O334        C336   1.266       .  A
O335       Zr349   2.526       .  S
O335        C336   1.298       .  A
C336        C627   1.514       .  S
O337       Zr346   2.426       .  S
O337        C339   1.277       .  A
O338       Zr350   2.473       .  S
O338        C339   1.295       .  A
C339        C529   1.502       .  S
O340       Zr343   2.450       .  S
O340        C342   1.290       .  A
O341       Zr349   2.408       .  S
O341        C342   1.285       .  A
C342        C557   1.471       .  S
Zr343       O344   2.435       .  S
Zr343      O1289   2.434       .  S
Zr343       O351   2.443       .  S
Zr343       O352   2.366       .  S
Zr343      O1299   2.384       .  S
Zr343      O1297   2.422       .  S
O344        H364   0.989       .  S
O344        H369   0.991       .  S
O345      Zr1287   2.434   1_545  S
O345        H365   0.990       .  S
Zr346       O347   2.436       .  S
Zr346       O348   2.434       .  S
Zr346       O352   2.398       .  S
Zr346       O351   2.351       .  S
Zr346       O356   2.360       .  S
Zr346       O354   2.390       .  S
O347        H363   0.990       .  S
O348        H362   0.990       .  S
O348        H372   0.990       .  S
Zr349      O1256   2.552       .  S
Zr349       O352   2.402       .  S
Zr349       O354   2.422       .  S
Zr349      O1273   2.380       .  S
Zr349      O1299   2.387       .  S
Zr350      O1259   2.402       .  S
Zr350      O1265   2.500       .  S
Zr350       O351   2.436       .  S
Zr350       O356   2.393       .  S
Zr350      O1274   2.415       .  S
Zr350      O1297   2.406       .  S
O351        H359   0.970       .  S
O353      Zr1287   2.370   1_545  S
O353      Zr1294   2.382       .  S
O354        H358   0.966       .  S
O355      Zr1287   2.390   1_545  S
O355      Zr1293   2.389   1_545  S
O355        H360   0.965       .  S
O373       Zr385   2.507       .  S
O373        C375   1.301       .  A
O374       Zr411   2.404   1_554  S
O374        C375   1.285       .  A
C375        C599   1.484       .  S
O376       Zr388   2.359   1_554  S
O376        C378   1.264       .  A
O377       Zr412   2.561       .  S
O377        C378   1.305       .  A
C378        C736   1.512   1_554  S
O379       Zr388   2.357       .  S
O379        C381   1.247       .  A
O380       Zr411   2.530       .  S
O380        C381   1.299       .  A
C381        C876   1.493       .  S
O382       Zr385   2.452       .  S
O382        C384   1.292       .  A
O383       Zr412   2.486       .  S
O383        C384   1.300       .  A
C384        C515   1.503       .  S
Zr385       O386   2.434       .  S
Zr385       O387   2.434       .  S
Zr385       O391   2.366       .  S
Zr385       O392   2.381       .  S
Zr385       O415   2.384       .  S
Zr385       O417   2.353       .  S
O386        H429   0.989       .  S
O387        H428   0.989       .  S
O387        H432   0.991       .  S
Zr388       O389   2.439   1_556  S
Zr388       O390   2.430       .  S
Zr388       O392   2.366   1_556  S
Zr388       O391   2.372   1_556  S
Zr388       O416   2.379       .  S
Zr388       O418   2.346       .  S
O389        H430   0.989       .  S
O389        H433   0.989       .  S
O390        H423   0.990       .  S
O391       Zr411   2.403   1_554  S
O392       Zr412   2.393       .  S
O392        H419   0.965       .  S
O393       Zr405   2.389       .  S
O393        C395   1.265       .  A
O394       Zr412   2.517       .  S
O394        C395   1.289       .  A
C395        C865   1.516       .  S
O396       Zr408   2.462       .  S
O396        C398   1.293       .  A
O397       Zr411   2.458       .  S
O397        C398   1.295       .  A
C398        C501   1.484       .  S
O399       Zr408   2.519       .  S
O399        C401   1.304       .  A
O400       Zr412   2.364   1_556  S
O400        C401   1.278       .  A
C401        C582   1.482       .  S
O402       Zr405   2.389       .  S
O402        C404   1.276   1_554  A
O403       Zr411   2.525       .  S
O403        C404   1.306       .  A
C404        C725   1.490   1_556  S
Zr405       O406   2.432   1_554  S
Zr405       O407   2.434       .  S
Zr405       O413   2.373   1_554  S
Zr405       O414   2.368   1_554  S
Zr405       O417   2.354       .  S
Zr405       O415   2.384       .  S
O406        H426   0.987       .  S
O406        H431   0.989       .  S
O407        H427   0.991       .  S
Zr408       O409   2.431       .  S
Zr408       O410   2.443       .  S
Zr408       O414   2.402       .  S
Zr408       O413   2.331       .  S
Zr408       O418   2.362       .  S
Zr408       O416   2.342       .  S
O409        H425   0.990       .  S
O410        H424   0.989       .  S
O410        H434   0.989       .  S
Zr411       O414   2.410       .  S
Zr411       O416   2.401       .  S
Zr411       O417   2.391   1_556  S
Zr412       O413   2.431   1_554  S
Zr412       O415   2.418       .  S
Zr412       O418   2.368   1_554  S
O413        H421   0.964       .  S
O416        H420   0.962       .  S
O417        H422   0.963       .  S
O435       Zr447   2.375       .  S
O435        C437   1.265       .  A
O436       Zr473   2.532       .  S
O436        C437   1.303       .  A
C437        C767   1.505       .  S
O438       Zr450   2.443       .  S
O438        C440   1.290       .  A
O439       Zr474   2.450       .  S
O439        C440   1.291       .  A
C440        C498   1.508       .  S
O441       Zr450   2.383       .  S
O441        C443   1.277       .  A
O442       Zr473   2.416       .  S
O442        C443   1.292       .  A
C443        C655   1.456       .  S
O444       Zr447   2.378       .  S
O444        C446   1.276       .  A
O445       Zr474   2.538       .  S
O445        C446   1.308       .  A
C446        C540   1.503       .  S
Zr447       O448   2.439       .  S
Zr447       O449   2.439       .  S
Zr447       O453   2.354       .  S
Zr447       O454   2.364       .  S
Zr447       O477   2.354       .  S
Zr447       O479   2.381       .  S
O448        H491   0.990       .  S
O449        H490   0.990       .  S
O449        H494   0.990       .  S
Zr450       O451   2.434       .  S
Zr450       O452   2.435       .  S
Zr450       O454   2.353       .  S
Zr450       O453   2.383       .  S
Zr450       O478   2.384       .  S
Zr450       O480   2.335       .  S
O451        H492   0.990       .  S
O451        H495   0.990       .  S
O452        H485   0.991       .  S
O453       Zr473   2.409       .  S
O454       Zr474   2.385       .  S
O454        H481   0.968       .  S
O455       Zr467   2.369       .  S
O455        C457   1.275       .  A
O456       Zr474   2.410       .  S
O456        C457   1.286       .  A
C457        C641   1.440       .  S
O458       Zr470   2.384       .  S
O458        C460   1.277       .  A
O459       Zr473   2.524       .  S
O459        C460   1.306       .  A
C460        C526   1.514       .  S
O461       Zr470   2.409       .  S
O461        C463   1.269       .  A
O462       Zr474   2.509       .  S
O462        C463   1.293       .  A
C463        C753   1.505       .  S
O464       Zr467   2.436       .  S
O464        C466   1.289       .  A
O465       Zr473   2.488       .  S
O465        C466   1.299       .  A
C466        C512   1.523       .  S
Zr467       O468   2.434       .  S
Zr467       O469   2.435       .  S
Zr467       O475   2.368       .  S
Zr467       O476   2.342       .  S
Zr467       O479   2.326       .  S
Zr467       O477   2.379       .  S
O468        H488   0.991       .  S
O468        H493   0.990       .  S
O469        H489   0.991       .  S
Zr470       O471   2.444       .  S
Zr470       O472   2.456       .  S
Zr470       O476   2.361       .  S
Zr470       O475   2.372       .  S
Zr470       O480   2.367       .  S
Zr470       O478   2.346       .  S
O471        H487   0.991       .  S
O472        H486   0.990       .  S
O472        H496   0.990       .  S
Zr473       O476   2.378       .  S
Zr473       O478   2.410       .  S
Zr473       O479   2.377       .  S
Zr474       O475   2.429       .  S
Zr474       O477   2.389       .  S
Zr474       O480   2.396       .  S
O475        H483   0.967       .  S
O478        H482   0.964       .  S
O479        H484   0.965       .  S
C497        C498   1.411       .  A
C497        C502   1.399       .  A
C497        H504   1.083       .  S
C498        C499   1.424       .  A
C499        C500   1.416       .  A
C499        N506   1.432       .  S
C500        C501   1.404       .  A
C500        H505   1.084       .  S
C501        C502   1.411       .  A
C502        N503   1.439       .  S
N503        O507   1.263       .  A
N503        O508   1.262       .  A
N506        O509   1.260       .  A
N506        O510   1.262       .  A
C511        C512   1.414       .  A
C511        C516   1.401       .  A
C511        H518   1.082       .  S
C512        C513   1.425       .  A
C513        C514   1.429       .  A
C513        N520   1.437       .  S
C514        C515   1.413       .  A
C514        H519   1.083       .  S
C515        C516   1.412       .  A
C516        N517   1.441       .  S
N517        O521   1.263       .  A
N517        O522   1.263       .  A
N520        O523   1.263       .  A
N520        O524   1.263       .  A
C525        C526   1.421       .  A
C525        C530   1.399       .  A
C525        H532   1.084       .  S
C526        C527   1.417       .  A
C527        C528   1.419       .  A
C527        N534   1.434       .  S
C528        C529   1.417       .  A
C528        H533   1.083       .  S
C529        C530   1.404       .  A
C530        N531   1.430       .  S
N531        O535   1.262       .  A
N531        O536   1.261       .  A
N534        O537   1.259       .  A
N534        O538   1.263       .  A
C539        C540   1.404       .  A
C539        C544   1.402       .  A
C539        H546   1.083       .  S
C540        C541   1.426       .  A
C541        C542   1.434       .  A
C541        N548   1.445       .  S
C542        C543   1.415       .  A
C542        H547   1.082       .  S
C543        C544   1.421       .  A
C544        N545   1.449       .  S
N545        O549   1.263       .  A
N545        O550   1.262       .  A
N548        O551   1.262       .  A
N548        O552   1.263       .  A
C553        C558   1.401       .  A
C553       C1498   1.400   1_545  A
C553        H560   1.084       .  S
C554        C555   1.414       .  A
C554       C1497   1.400       .  A
C555        C556   1.401       .  A
C555        N562   1.435       .  S
C556        C557   1.399       .  A
C556        H561   1.084       .  S
C557       C1502   1.416       .  A
C558       C1501   1.416   1_545  A
C558        N559   1.438       .  S
N559        O563   1.263       .  A
N559        O564   1.262       .  A
N562        O565   1.260       .  A
N562        O566   1.263       .  A
C567        C568   1.402       .  A
C567        C572   1.399       .  A
C567       H1518   1.083       .  S
C568        C569   1.427       .  A
C569        C570   1.406       .  A
C569        N576   1.432       .  S
C570        C571   1.398       .  A
C570        H575   1.084       .  S
C571        C572   1.418       .  A
C572        N573   1.439       .  S
N573        O578   1.262       .  A
N573       O1521   1.263       .  A
H574       C1511   1.083       .  S
N576        O579   1.262       .  A
N576        O580   1.262       .  A
O577       N1517   1.263       .  A
C581        C582   1.400       .  A
C581        C586   1.408       .  A
C581        H588   1.084       .  S
C582        C583   1.426       .  A
C583        C584   1.393       .  A
C583        N590   1.435       .  S
C584        C585   1.390       .  A
C584        H589   1.085       .  S
C585        C586   1.425       .  A
C586        N587   1.444       .  S
N587        O591   1.263       .  A
N587        O592   1.262       .  A
N590        O593   1.262   1_556  A
N590        O594   1.263       .  A
C595        C596   1.414       .  A
C595        C600   1.406       .  A
C595        H602   1.082       .  S
C596        C597   1.420       .  A
C597        C598   1.417       .  A
C597        N604   1.443       .  S
C598        C599   1.409       .  A
C598        H603   1.080       .  S
C599        C600   1.409       .  A
C600        N601   1.444       .  S
N601        O605   1.262       .  A
N601        O606   1.262       .  A
N604        O607   1.260       .  A
N604        O608   1.262       .  A
C609        C610   1.422       .  A
C609        C614   1.410       .  A
C609        H616   1.084       .  S
C610        C611   1.414       .  A
C611        C612   1.402       .  A
C611        N618   1.422       .  S
C612        C613   1.407       .  A
C612        H617   1.085       .  S
C613        C614   1.408       .  A
C614        N615   1.430       .  S
N615        O619   1.262       .  A
N615        O620   1.260       .  A
N618        O621   1.258       .  A
N618        O622   1.263       .  A
C623        C624   1.406       .  A
C623        C628   1.417       .  A
C623        H630   1.082       .  S
C624        C625   1.429       .  A
C625        C626   1.419       .  A
C625        N632   1.439       .  S
C626        C627   1.405       .  A
C626        H631   1.083       .  S
C627        C628   1.428       .  A
C628        N629   1.438       .  S
N629        O633   1.262       .  A
N629        O634   1.263       .  A
N632        O635   1.263       .  A
N632        O636   1.262       .  A
C637        C638   1.405       .  A
C637        C642   1.380       .  A
C637        H644   1.083       .  S
C638        C639   1.404       .  A
C639        C640   1.394       .  A
C639        N646   1.439       .  S
C640        C641   1.406       .  A
C640        H645   1.084       .  S
C641        C642   1.400       .  A
C642        N643   1.435       .  S
N643        O647   1.262       .  A
N643        O648   1.262       .  A
N646        O649   1.262       .  A
N646        O650   1.263       .  A
C651        C652   1.398       .  A
C651        C656   1.398       .  A
C651        H658   1.084       .  S
C652        C653   1.413       .  A
C653        C654   1.367       .  A
C653        N660   1.433       .  S
C654        C655   1.392       .  A
C654        H659   1.079       .  S
C655        C656   1.420       .  A
C656        N657   1.434       .  S
N657        O661   1.263       .  A
N657        O662   1.262       .  A
N660        O663   1.261       .  A
N660        O664   1.263       .  A
C665        C666   1.407       .  A
C665        C670   1.415       .  A
C665        H672   1.084       .  S
C666        C667   1.407       .  A
C667        C668   1.398       .  A
C667       N2562   1.441       .  S
C668        C669   1.404       .  A
C668       H2561   1.085       .  S
C669        C670   1.418       .  A
C670        N671   1.443       .  S
N671        O675   1.263       .  A
N671        O676   1.262       .  A
H673       C2556   1.085   1_455  S
N674       C2555   1.441       .  S
N674        O677   1.263       .  A
N674        O678   1.262       .  A
C679        C684   1.401       .  A
C679       C2568   1.404       .  A
C679        H686   1.083       .  S
C680        C681   1.421       .  A
C680       C2567   1.404   1_455  A
C681        C682   1.413       .  A
C681        N688   1.434       .  S
C682        C683   1.403       .  A
C682        H687   1.083       .  S
C683       C2572   1.420   1_455  A
C684       C2571   1.420       .  A
C684        N685   1.440       .  S
N685        O689   1.263       .  A
N685        O690   1.263       .  A
N688        O691   1.263       .  A
N688        O692   1.262       .  A
C693        C694   1.407       .  A
C693        C698   1.391       .  A
C693        H700   1.070       .  S
C694        C695   1.407       .  A
C695        C696   1.396       .  A
C695        N702   1.430       .  S
C696        C697   1.405       .  A
C696        H701   1.085       .  S
C697        C698   1.397       .  A
C698        N699   1.444       .  S
N699        O703   1.262       .  A
N699        O704   1.262       .  A
N702        O705   1.262       .  A
N702        O706   1.262       .  A
C707        C708   1.396       .  A
C707        C712   1.394       .  A
C707        H714   1.084       .  S
C708        C709   1.409       .  A
C709        C710   1.395       .  A
C709        N716   1.432       .  S
C710        C711   1.404       .  A
C710        H715   1.084       .  S
C711        C712   1.417       .  A
C712        N713   1.436   1_554  S
N713        O717   1.262       .  A
N713        O718   1.262       .  A
N716        O719   1.262       .  A
N716        O720   1.261       .  A
C721        C722   1.410   1_556  A
C721        C726   1.411       .  A
C721        H728   1.082       .  S
C722        C723   1.412       .  A
C723        C724   1.417       .  A
C723        N730   1.442       .  S
C724        C725   1.414       .  A
C724        H729   1.083       .  S
C725        C726   1.412   1_554  A
C726        N727   1.442       .  S
N727        O731   1.263       .  A
N727        O732   1.262       .  A
N730        O733   1.262       .  A
N730        O734   1.263       .  A
C735        C736   1.411   1_554  A
C735        C740   1.408   1_554  A
C735        H742   1.084       .  S
C736        C737   1.427       .  A
C737        C738   1.419       .  A
C737        N744   1.438       .  S
C738        C739   1.406       .  A
C738        H743   1.083       .  S
C739        C740   1.413       .  A
C740        N741   1.430   1_556  S
N741        O745   1.263       .  A
N741        O746   1.259       .  A
N744        O747   1.258       .  A
N744        O748   1.263       .  A
C749        C750   1.414       .  A
C749        C754   1.419       .  A
C749        H756   1.084       .  S
C750        C751   1.412       .  A
C751        C752   1.400       .  A
C751        N758   1.443       .  S
C752        C753   1.405       .  A
C752        H757   1.069       .  S
C753        C754   1.414       .  A
C754        N755   1.437       .  S
N755        O759   1.263       .  A
N755        O760   1.260       .  A
N758        O761   1.261       .  A
N758        O762   1.262       .  A
C763        C764   1.420       .  A
C763        C768   1.418       .  A
C763        H770   1.084       .  S
C764        C765   1.402       .  A
C765        C766   1.397       .  A
C765        N772   1.440       .  S
C766        C767   1.419       .  A
C766        H771   1.080       .  S
C767        C768   1.412       .  A
C768        N769   1.435       .  S
N769        O773   1.262       .  A
N769        O774   1.262       .  A
N772        O775   1.262       .  A
N772        O776   1.263       .  A
C777        C782   1.372   1_565  A
C777       C1722   1.418       .  A
C777        H784   1.083       .  S
C778        C779   1.406       .  A
C778       C1721   1.411       .  A
C779        C780   1.390       .  A
C779        N786   1.434       .  S
C780       C1725   1.408       .  A
C780        H785   1.083       .  S
C781        C782   1.393       .  A
C781       C1724   1.413       .  A
C782        N783   1.434       .  S
N783        O787   1.262   1_545  A
N783        O788   1.262       .  A
N786        O789   1.262       .  A
N786       O1734   1.263       .  A
O790       N1730   1.263   1_545  A
C791        C792   1.395       .  A
C791        C796   1.400       .  A
C791        H798   1.084       .  S
C792       C1737   1.417       .  A
C793        C794   1.394       .  A
C793       C1736   1.415       .  A
C793        N800   1.426       .  S
C794        C795   1.392   1_545  A
C794        H799   1.084       .  S
C795       C1740   1.417       .  A
C796       C1739   1.419       .  A
C796        N797   1.433       .  S
N797        O801   1.263       .  A
N797        O802   1.260       .  A
N800        O803   1.261       .  A
N800        O804   1.262       .  A
C805        C806   1.414       .  A
C805        C810   1.425       .  A
C805        H812   1.082       .  S
C806        C807   1.417       .  A
C807        C808   1.415       .  A
C807        N814   1.442       .  S
C808        C809   1.412       .  A
C808        H813   1.080       .  S
C809       C1953   1.510       .  S
C809        C810   1.419       .  A
C810       N2699   1.445       .  S
N811       C2698   1.445       .  S
N811        O815   1.263       .  A
N811       O2704   1.263       .  A
N814        O817   1.262       .  A
N814        O818   1.263       .  A
O816       N2699   1.263       .  A
C819        C820   1.405       .  A
C819        C824   1.420       .  A
C819        H826   1.084       .  S
C820       C2709   1.426       .  A
C821        C822   1.422       .  A
C821       C2708   1.426   1_455  A
C821        N828   1.439       .  S
C822       C2711   1.406   1_455  A
C822        H827   1.084       .  S
C823       C2083   1.518       .  S
C823        C824   1.430       .  A
C823       C2710   1.406       .  A
C824        N825   1.440       .  S
N825        O829   1.263       .  A
N825        O830   1.263       .  A
N828        O831   1.263       .  A
N828        O832   1.263       .  A
C833        C834   1.406       .  A
C833        C838   1.406       .  A
C833        H840   1.084       .  S
C834       C1894   1.472       .  S
C834       C2723   1.408       .  A
C835        C836   1.395       .  A
C835       C2722   1.408       .  A
C835        N842   1.437   1_655  S
C836       C2725   1.409       .  A
C836        H841   1.083   1_655  S
C837        C838   1.417       .  A
C837       C2724   1.411       .  A
C838        N839   1.433       .  S
N839        O843   1.262       .  A
N839       O1788   1.262       .  A
N842        O845   1.261       .  A
N842       O1790   1.263       .  A
O844       N1783   1.262   1_545  A
O846       N1786   1.263       .  A
C847        C848   1.392       .  A
C847        C852   1.387       .  A
C847        H854   1.085       .  S
C848       C2737   1.409       .  A
C849        C850   1.401       .  A
C849       C2736   1.409       .  A
C849        N856   1.444       .  S
C850        C851   1.408   1_455  A
C850        H855   1.083       .  S
C851       C2740   1.415       .  A
C852       C2739   1.416       .  A
C852        N853   1.432       .  S
N853        O857   1.262       .  A
N853       O1802   1.262   1_545  A
N856        O859   1.263       .  A
N856        O860   1.263       .  A
O858       N1797   1.262       .  A
C861        C862   1.409       .  A
C861        C866   1.421       .  A
C861        H868   1.084       .  S
C862        C863   1.424   1_556  A
C863        C864   1.412       .  A
C863        N870   1.433       .  S
C864        C865   1.405       .  A
C864        H869   1.084       .  S
C865        C866   1.427   1_554  A
C866        N867   1.436       .  S
N867        O871   1.260       .  A
N867        O872   1.263       .  A
N870        O873   1.264       .  A
N870        O874   1.260       .  A
C875        C876   1.395   1_554  A
C875        C880   1.404       .  A
C875        H882   1.083       .  S
C876        C877   1.438       .  A
C877        C878   1.397       .  A
C877        N884   1.439       .  S
C878        C879   1.387   1_556  A
C878        H883   1.084       .  S
C879        C880   1.430       .  A
C880        N881   1.436       .  S
N881        O885   1.262       .  A
N881        O886   1.262       .  A
N884        O887   1.262       .  A
N884        O888   1.264       .  A
C889        C890   1.416       .  A
C889        C894   1.448       .  A
C889        H896   1.082       .  S
C890       C1835   1.428       .  A
C891        C892   1.423       .  A
C891       C1834   1.428       .  A
C891        N898   1.441       .  S
C892       C1837   1.412       .  A
C892        H897   1.084       .  S
C893        C894   1.441       .  A
C893       C1836   1.412       .  A
C894        N895   1.439       .  S
N895        O899   1.262       .  A
N895        O900   1.258       .  A
N898        O901   1.263       .  A
N898        O902   1.263       .  A
C903        C904   1.408       .  A
C903        C908   1.419       .  A
C903        H910   1.080   1_556  S
C904        C905   1.433       .  A
C905        C906   1.440       .  A
C905        N912   1.437       .  S
C906        C907   1.416       .  A
C906        H911   1.083       .  S
C907        C908   1.422       .  A
C908        N909   1.440   1_556  S
N909        O913   1.263       .  A
N909        O914   1.262       .  A
N912        O916   1.263       .  A
N912       O1859   1.261       .  A
O915       N1856   1.261       .  A
C917        C922   1.390   1_554  A
C917       C2806   1.399       .  A
C917        H924   1.081       .  S
C918        C919   1.411   1_655  A
C918       C2805   1.399       .  A
C919        C920   1.395   1_554  A
C919        N926   1.442       .  S
C920       C2809   1.395   1_455  A
C920        H925   1.082       .  S
C921        C922   1.405       .  A
C921       C2808   1.395       .  A
C922        N923   1.441       .  S
N923        O927   1.263       .  A
N923        O928   1.262       .  A
N926        O929   1.261       .  A
N926        O930   1.263       .  A
C931        C936   1.386       .  A
C931       C2820   1.413       .  A
C931        H938   1.084       .  S
C932        C933   1.406   1_556  A
C932       C2819   1.413       .  A
C933        C934   1.393       .  A
C933        N940   1.442       .  S
C934        C935   1.407   1_554  A
C934        H939   1.082       .  S
C935       C2824   1.396       .  A
C936       C2823   1.396       .  A
C936        N937   1.441       .  S
N937        O941   1.263       .  A
N937        O942   1.263       .  A
N940        O943   1.262       .  A
N940        O944   1.263       .  A
O945       Zr957   2.365   1_554  S
O945        C947   1.260       .  A
O946      Zr2871   2.510       .  S
O946        C947   1.305       .  A
C947       C1823   1.479       .  S
O948       Zr960   2.429       .  S
O949       Zr984   2.435       .  S
O949        C950   1.290       .  A
C950       C3666   1.472       .  S
O951       Zr960   2.435   1_455  S
O951       C2841   1.281       .  A
O952       Zr983   2.372   1_556  S
O952        C953   1.259       .  A
C953       O2839   1.281       .  A
C953       C1879   1.441       .  S
O954       Zr957   2.402       .  S
O955       Zr984   2.598   1_455  S
O955        C956   1.320       .  A
C956       C1848   1.537       .  S
Zr957       O958   2.436       .  S
Zr957       O959   2.436   1_556  S
Zr957       O963   2.360       .  S
Zr957       O964   2.375       .  S
Zr957       O989   2.397   1_556  S
O958       H1001   0.990       .  S
O959       H1000   0.989       .  S
O959       H1004   0.989       .  S
Zr960       O961   2.435   1_655  S
Zr960      O2850   2.433       .  S
Zr960       O964   2.378   1_655  S
Zr960       O963   2.360   1_655  S
Zr960      O2876   2.393       .  S
Zr960      O1934   2.370       .  S
O961       H1002   0.990       .  S
O961       H1005   0.991       .  S
O962      Zr2848   2.433       .  S
O962        H995   0.990       .  S
O963      Zr2871   2.400   1_556  S
O964        H991   0.965       .  S
O965       Zr977   2.451       .  S
O965       C2855   1.288       .  A
O966       Zr984   2.333       .  S
O966        C967   1.276   1_556  A
C967       O2853   1.288       .  A
C967       C1862   1.436       .  S
O968       Zr980   2.414   1_545  S
O969       Zr983   2.605       .  S
O969        C970   1.321       .  A
C970       C1834   1.549       .  S
O971       Zr980   2.389   1_556  S
O971        C973   1.266       .  A
O972      Zr2872   2.530       .  S
O972        C973   1.296       .  A
C973       C1806   1.514       .  S
O974       Zr977   2.432       .  S
O975       Zr983   2.388       .  S
O975        C976   1.283       .  A
C976       C1792   1.443       .  S
Zr977       O978   2.434       .  S
Zr977      O2867   2.435       .  S
Zr977       O985   2.337       .  S
Zr977       O986   2.383       .  S
Zr977      O1933   2.315   1_565  S
Zr977      O2875   2.367       .  S
O978        H998   0.989       .  S
O978       H1003   0.991       .  S
O979      Zr2865   2.435   1_455  S
O979        H999   0.989       .  S
Zr980       O981   2.436       .  S
Zr980       O982   2.440   1_554  S
Zr980       O986   2.353       .  S
Zr980       O985   2.378       .  S
Zr980       O990   2.394   1_554  S
O981        H997   0.989       .  S
O982        H996   0.990       .  S
O982       H1006   0.990   1_556  S
Zr983      O2834   2.510       .  S
Zr983      O2851   2.399   1_554  S
Zr983       O988   2.395   1_554  S
Zr983      O2877   2.399       .  S
Zr984      O2860   2.531       .  S
Zr984      O2873   2.423   1_556  S
Zr984       O987   2.374   1_656  S
Zr984      O2878   2.413       .  S
O985      Zr2872   2.422   1_554  S
O985        H993   0.967       .  S
O987      Zr2865   2.367   1_455  S
O988      Zr2848   2.393       .  S
O988        H992   0.964       .  S
O989      Zr1921   2.315   1_455  S
O989      Zr2871   2.400       .  S
O989        H994   0.965       .  S
O990      Zr1904   2.370   1_565  S
O990      Zr2872   2.413       .  S
O1007     Zr1019   2.403       .  S
O1007      C2897   1.270       .  A
O1008      C1009   1.304   1_455  A
C1009      O2895   1.269       .  A
C1009      C3641   1.507       .  S
O1010     Zr1022   2.466       .  S
O1010      C1012   1.266       .  A
O1011     Zr1046   2.347       .  S
O1011      C1012   1.251       .  A
C1012      C1725   1.482       .  S
O1013     Zr1022   2.440       .  S
O1013      C2903   1.289       .  A
O1014     Zr1045   2.398       .  S
O1014      C1015   1.284   1_455  A
C1015      O2901   1.284       .  A
C1015      C1795   1.472   1_655  S
O1016     Zr1019   2.369       .  S
O1016      C1018   1.273       .  A
O1017      C1018   1.303       .  A
C1018      C1694   1.479       .  S
Zr1019     O1020   2.437       .  S
Zr1019     O1021   2.436       .  S
Zr1019     O1025   2.371       .  S
Zr1019     O1026   2.341       .  S
Zr1019     O1049   2.372       .  S
Zr1019     O2939   2.363       .  S
O1020      H1063   0.990       .  S
O1021      H1062   0.989       .  S
O1021      H1066   0.989       .  S
Zr1022     O1024   2.437       .  S
Zr1022     O2938   2.372       .  S
Zr1022     O1052   2.402       .  S
O1023      H1064   0.989       .  S
O1023      H1067   0.991       .  S
O1024      H1057   0.990       .  S
O1025     Zr1989   2.383       .  S
O1026      H1053   0.969       .  S
O1027     Zr1983   2.434       .  S
O1027      C1029   1.290       .  A
O1028      C1029   1.289       .  A
C1029      C1781   1.492       .  S
O1030     Zr1042   2.346       .  S
O1030      C1032   1.271       .  A
O1031     Zr1045   2.505       .  S
O1031      C1032   1.302       .  A
C1032      C1708   1.470       .  S
O1033     Zr2930   2.397       .  S
O1033      C1035   1.270       .  A
O1034     Zr1046   2.534       .  S
O1034      C1035   1.304       .  A
C1035      C1764   1.514       .  S
O1036     Zr1039   2.502       .  S
O1036      C1038   1.301       .  A
O1037     Zr1045   2.345       .  S
O1037      C1038   1.275       .  A
C1038      C1739   1.467       .  S
Zr1039     O1971   2.440   1_455  S
Zr1039     O1040   2.434       .  S
Zr1039     O2935   2.369       .  S
Zr1039     O1048   2.354       .  S
Zr1039     O1993   2.375   1_455  S
O1040      H1060   0.990       .  S
O1040      H1065   0.990       .  S
O1041      H2949   0.990   1_455  S
Zr1042     O2921   2.405       .  S
Zr1042     O1043   2.434       .  S
Zr1042     O1044   2.437       .  S
Zr1042     O1048   2.368       .  S
Zr1042     O2935   2.355       .  S
Zr1042     O2940   2.340   1_455  S
Zr1042     O1050   2.380       .  S
O1043      H1059   0.990       .  S
O1044      H2946   0.989       .  S
O1044      H1068   0.990       .  S
Zr1045     O1969   2.385   1_455  S
Zr1045     O1048   2.395       .  S
Zr1045     O1050   2.391       .  S
Zr1046     O1047   2.393       .  S
Zr1046     O1052   2.389       .  S
O1047     Zr2927   2.367       .  S
O1047     Zr2930   2.358       .  S
O1047      H1055   0.966       .  S
O1049     Zr1983   2.374       .  S
O1050     Zr2910   2.350   1_455  S
O1050      H1054   0.967       .  S
O1051     Zr2907   2.363       .  S
O1051      H1056   0.961   1_655  S
O1052     Zr2930   2.349       .  S
H1058      O2932   0.989       .  S
H1061      O2929   0.990       .  S
O1069     Zr1081   2.394       .  S
O1069      C1071   1.273       .  A
O1070     Zr2995   2.515   1_455  S
O1070      C1071   1.300       .  A
C1071      C1683   1.497       .  S
O1072     Zr1084   2.490       .  S
O1072      C1074   1.297       .  A
O1073     Zr1108   2.417       .  S
O1073      C1074   1.289       .  A
C1074      C1624   1.499   1_655  S
O1075     Zr2972   2.459       .  S
O1075      C1077   1.288   1_554  A
O1076     Zr1107   2.344       .  S
O1076      C1077   1.266       .  A
C1077      C1876   1.451       .  S
O1078     Zr1081   2.388   1_554  S
O1078      C1080   1.273       .  A
O1079     Zr1108   2.448   1_455  S
O1079      C1080   1.289       .  A
C1080      C1652   1.449       .  S
Zr1081     O1082   2.434   1_556  S
Zr1081     O1083   2.435       .  S
Zr1081     O1087   2.359   1_556  S
Zr1081     O1088   2.372   1_556  S
Zr1081     O1111   2.354       .  S
Zr1081     O1113   2.370       .  S
O1082      H1125   0.990       .  S
O1083      H1124   0.990       .  S
O1083      H1128   0.991       .  S
Zr1084     O2963   2.459   1_655  S
Zr1084     O1085   2.436   1_655  S
Zr1084     O2974   2.432       .  S
Zr1084     O1088   2.350   1_655  S
Zr1084     O1087   2.391   1_655  S
Zr1084     O3000   2.372   1_554  S
Zr1084     O3002   2.380       .  S
O1085      H1126   0.990       .  S
O1085      H1129   0.989       .  S
O1086     Zr2972   2.432       .  S
O1086      H1119   0.989       .  S
O1087     Zr2995   2.377   1_454  S
O1088     Zr1108   2.389   1_455  S
O1088      H1115   0.963       .  S
O1089     Zr1101   2.435       .  S
O1089      C1091   1.285       .  A
O1090     Zr1108   2.340       .  S
O1090      C2979   1.275   1_554  A
C1091      O2978   1.275   1_556  A
C1091      C1865   1.428       .  S
O1092     Zr1104   2.422       .  S
O1092      C1094   1.271       .  A
O1093     Zr1107   2.424       .  S
O1093      C1094   1.272       .  A
C1094      C1638   1.471       .  S
O1095     Zr1104   2.392   1_554  S
O1095      C1097   1.275       .  A
O1096     Zr2996   2.514       .  S
O1096      C1097   1.302       .  A
C1097      C1666   1.492       .  S
O1098     Zr1101   2.426       .  S
O1098      C1100   1.285       .  A
O1099     Zr1107   2.444       .  S
O1099      C1100   1.291       .  A
C1100      C1610   1.472       .  S
Zr1101     O1102   2.437       .  S
Zr1101     O2991   2.434       .  S
Zr1101     O1109   2.376       .  S
Zr1101     O1110   2.337       .  S
Zr1101     O3001   2.379       .  S
Zr1101     O2999   2.358       .  S
O1102      H1122   0.989       .  S
O1102      H1127   0.991       .  S
O1103     Zr2989   2.434   1_455  S
O1103      H1123   0.990       .  S
Zr1104     O1105   2.434       .  S
Zr1104     O1106   2.440   1_556  S
Zr1104     O1110   2.356       .  S
Zr1104     O1109   2.348       .  S
Zr1104     O1114   2.377   1_556  S
Zr1104     O1112   2.357       .  S
O1105      H1121   0.990       .  S
O1106      H1120   0.989       .  S
O1106      H1130   0.989       .  S
Zr1107     O2958   2.516       .  S
Zr1107     O2975   2.377   1_556  S
Zr1107     O1110   2.385       .  S
Zr1107     O1112   2.446       .  S
Zr1107     O3001   2.386       .  S
Zr1108     O2984   2.514       .  S
Zr1108     O2997   2.367   1_554  S
Zr1108     O1111   2.396   1_654  S
Zr1108     O3002   2.369       .  S
O1109     Zr2996   2.367   1_556  S
O1109      H1117   0.964       .  S
O1111     Zr2989   2.358   1_455  S
O1112     Zr2972   2.372   1_556  S
O1112      H1116   0.967       .  S
O1113     Zr2989   2.379   1_455  S
O1113     Zr2995   2.385   1_455  S
O1113      H1118   0.966       .  S
O1114     Zr2972   2.380       .  S
O1114     Zr2996   2.369       .  S
O1131     Zr1143   2.451       .  S
O1131      C1133   1.289       .  A
O1132     Zr1169   2.327       .  S
O1132      C1133   1.273       .  A
C1133      C1596   1.449       .  S
O1134     Zr1146   2.369       .  S
O1134      C1136   1.253       .  A
O1135     Zr1170   2.548       .  S
O1135      C1136   1.297       .  A
C1136      C1554   1.509       .  S
O1137     Zr1146   2.372       .  S
O1137      C3027   1.263       .  A
O1138     Zr1169   2.560       .  S
O1138      C1139   1.306   1_455  A
C1139      O3025   1.264       .  A
C1139      C3655   1.518       .  S
O1140     Zr3031   2.406       .  S
O1140      C1142   1.283       .  A
O1141     Zr1170   2.464       .  S
O1141      C1142   1.296       .  A
C1142      C1613   1.474       .  S
Zr1143     O3028   2.406   1_455  S
Zr1143     O1144   2.435       .  S
Zr1143     O1145   2.435       .  S
Zr1143     O1149   2.360       .  S
Zr1143     O3038   2.351   1_455  S
Zr1143     O3061   2.382   1_455  S
Zr1143     O1175   2.339       .  S
O1144      H1187   0.990       .  S
O1145      H1186   0.990       .  S
O1145      H1190   0.990       .  S
Zr1146     O1147   2.436       .  S
Zr1146     O1148   2.434       .  S
Zr1146     O1150   2.391       .  S
Zr1146     O3037   2.356       .  S
Zr1146     O1174   2.375       .  S
Zr1146     O1176   2.367       .  S
O1147      H1188   0.989       .  S
O1147      H1191   0.990       .  S
O1148      H1181   0.990       .  S
O1149     Zr3034   2.355   1_455  S
O1149     Zr1169   2.381       .  S
O1150     Zr3031   2.348       .  S
O1150     Zr1170   2.406       .  S
O1150      H1177   0.967       .  S
O1151     Zr3051   2.406       .  S
O1151      C1153   1.272       .  A
O1152     Zr1170   2.530       .  S
O1152      C1153   1.301       .  A
C1153      C1750   1.503       .  S
O1154     Zr1166   2.416       .  S
O1154      C3044   1.284       .  A
O1155     Zr1169   2.465       .  S
O1155      C1156   1.296       .  A
C1156      O3042   1.284   1_455  A
C1156      C1627   1.492       .  S
O1157     Zr1166   2.457       .  S
O1157      C1159   1.290       .  A
O1158     Zr1170   2.327       .  S
O1158      C1159   1.276       .  A
C1159      C1582   1.441       .  S
O1160     Zr1163   2.384       .  S
O1160      C1162   1.265       .  A
O1161     Zr1169   2.523       .  S
O1161      C1162   1.296       .  A
C1162      C1568   1.519       .  S
Zr1163     O3039   2.405   1_455  S
Zr1163     O1164   2.436       .  S
Zr1163     O1165   2.435       .  S
Zr1163     O3059   2.354   1_455  S
Zr1163     O1172   2.386       .  S
Zr1163     O1175   2.360       .  S
Zr1163     O3061   2.366   1_455  S
O1164      H3072   0.989       .  S
O1164      H1189   0.989       .  S
O1165      H1185   0.990       .  S
Zr1166     O1167   2.434       .  S
Zr1166     O1168   2.436       .  S
Zr1166     O3060   2.365       .  S
Zr1166     O1171   2.339       .  S
Zr1166     O1176   2.358       .  S
Zr1166     O1174   2.367       .  S
O1167      H1183   0.990       .  S
O1168      H1182   0.990       .  S
O1168      H1192   0.989       .  S
Zr1169     O1172   2.402       .  S
Zr1169     O3062   2.386   1_455  S
Zr1169     O1175   2.420       .  S
Zr1170     O1171   2.402       .  S
Zr1170     O1173   2.393       .  S
Zr1170     O1176   2.398       .  S
O1171     Zr3051   2.355       .  S
O1171      H1179   0.963       .  S
O1172     Zr3054   2.366   1_455  S
O1173     Zr3031   2.381       .  S
O1173     Zr3051   2.366       .  S
O1174     Zr3057   2.385       .  S
O1174      H1178   0.965       .  S
O1175      H1180   0.965       .  S
H1184      O3052   0.989       .  S
O1193     Zr1205   2.425       .  S
O1193      C1195   1.285       .  A
O1194     Zr1231   2.399       .  S
O1194      C1195   1.281   1_556  A
C1195      C1655   1.469       .  S
O1196     Zr1208   2.407   1_554  S
O1196      C1198   1.283       .  A
O1197     Zr1232   2.496       .  S
O1197      C1198   1.300       .  A
C1198      C1540   1.503       .  S
O1199     Zr1208   2.454       .  S
O1200     Zr1231   2.536       .  S
O1200      C1201   1.307       .  A
C1201      C1851   1.535       .  S
O1202     Zr1205   2.411   1_545  S
O1203     Zr1232   2.460       .  S
O1203      C1204   1.294       .  A
C1204      C1515   1.477       .  S
Zr1205     O1206   2.433       .  S
Zr1205     O1207   2.434       .  S
Zr1205     O1211   2.363       .  S
Zr1205     O1235   2.384       .  S
Zr1205     O1237   2.362       .  S
O1206      H1249   0.991       .  S
O1207      H1248   0.991       .  S
O1207      H1252   0.990       .  S
Zr1208     O1209   2.438   1_556  S
Zr1208     O1210   2.434       .  S
Zr1208     O1212   2.375   1_556  S
Zr1208     O1236   2.360       .  S
Zr1208     O1238   2.379       .  S
O1209      H1250   0.990       .  S
O1209      H1253   0.990       .  S
O1210      H1243   0.990       .  S
O1211     Zr1231   2.366   1_554  S
O1212     Zr1232   2.405       .  S
O1212      H1239   0.962       .  S
O1213      C1215   1.292       .  A
O1214     Zr1232   2.553       .  S
O1214      C1215   1.311       .  A
C1215      C1837   1.558       .  S
O1216     Zr1228   2.440       .  S
O1217     Zr1231   2.428       .  S
O1217      C1218   1.287       .  A
C1218      C1498   1.472       .  S
O1219     Zr1228   2.376       .  S
O1219      C1221   1.275       .  A
O1220     Zr1232   2.433   1_556  S
O1220      C1221   1.291       .  A
C1221      C1641   1.438       .  S
O1222     Zr1225   2.390       .  S
O1222      C1224   1.278       .  A
O1223     Zr1231   2.459       .  S
O1223      C1224   1.296       .  A
C1224      C1529   1.470       .  S
Zr1225     O1226   2.441       .  S
Zr1225     O1227   2.434   1_556  S
Zr1225     O1234   2.384       .  S
Zr1225     O1237   2.391   1_556  S
Zr1225     O1235   2.364   1_556  S
O1226      H1251   0.990       .  S
O1227      H1247   0.990       .  S
Zr1228     O1229   2.434       .  S
Zr1228     O1230   2.433       .  S
Zr1228     O1233   2.384       .  S
Zr1228     O1238   2.381       .  S
Zr1228     O1236   2.363       .  S
O1229      H1245   0.991       .  S
O1230      H1244   0.990       .  S
O1230      H1254   0.990       .  S
Zr1231     O1234   2.386       .  S
Zr1231     O1237   2.418   1_556  S
Zr1232     O1233   2.392   1_554  S
Zr1232     O1238   2.421   1_554  S
O1233      H1241   0.964       .  S
O1236      H1240   0.968       .  S
O1237      H1242   0.968       .  S
O1255     Zr1267   2.364       .  S
O1255      C1257   1.271       .  A
O1256      C1257   1.310       .  A
C1257      C1487   1.504       .  S
O1258      C1260   1.301       .  A
O1259      C1260   1.286       .  A
C1260      C1512   1.496       .  S
O1261     Zr1270   2.492       .  S
O1261      C1263   1.299       .  A
O1262     Zr1293   2.348       .  S
O1262      C1263   1.275   1_565  A
C1263      C1736   1.460       .  S
O1264     Zr1267   2.385       .  S
O1264      C1266   1.255       .  A
O1265      C1266   1.290       .  A
C1266      C1557   1.489       .  S
Zr1267     O1268   2.433       .  S
Zr1267     O1269   2.433       .  S
Zr1267     O1273   2.366       .  S
Zr1267     O1274   2.383       .  S
Zr1267     O1297   2.350       .  S
Zr1267     O1299   2.373       .  S
O1268      H1311   0.990       .  S
O1269      H1310   0.989       .  S
O1269      H1314   0.990       .  S
Zr1270     O1272   2.435   1_545  S
Zr1270     O1298   2.355   1_545  S
Zr1270     O1300   2.368   1_545  S
O1271      H1312   0.990       .  S
O1271      H1315   0.990       .  S
O1272      H1305   0.990       .  S
O1274      H1301   0.968       .  S
O1275     Zr1287   2.497       .  S
O1275      C1277   1.295       .  A
O1276     Zr1294   2.308       .  S
O1276      C1277   1.269   1_545  A
C1277      C1722   1.483       .  S
O1278     Zr1290   2.386       .  S
O1278      C1280   1.264       .  A
O1279     Zr1293   2.525       .  S
O1279      C1280   1.297       .  A
C1280      C1571   1.514       .  S
O1281     Zr1290   2.407       .  S
O1281      C1283   1.273       .  A
O1282     Zr1294   2.505   1_565  S
O1282      C1283   1.298       .  A
C1283      C1473   1.509       .  S
O1284     Zr1287   2.464       .  S
O1284      C1286   1.294       .  A
O1285     Zr1293   2.407       .  S
O1285      C1286   1.286       .  A
C1286      C1501   1.472       .  S
Zr1287     O1288   2.434       .  S
Zr1287     O1295   2.377       .  S
Zr1287     O1296   2.374       .  S
O1288      H1308   0.989       .  S
O1288      H1313   0.991       .  S
O1289      H1309   0.989       .  S
Zr1290     O1291   2.436       .  S
Zr1290     O1292   2.433       .  S
Zr1290     O1296   2.386       .  S
Zr1290     O1295   2.353       .  S
Zr1290     O1300   2.361       .  S
Zr1290     O1298   2.387       .  S
O1291      H1307   0.990       .  S
O1292      H1306   0.990       .  S
O1292      H1316   0.990       .  S
Zr1293     O1296   2.405       .  S
Zr1293     O1298   2.419       .  S
Zr1294     O1295   2.391   1_545  S
Zr1294     O1300   2.377   1_545  S
O1295      H1303   0.965       .  S
O1298      H1302   0.966       .  S
O1299      H1304   0.965       .  S
O1317     Zr1329   2.506       .  S
O1317      C1319   1.301       .  A
O1318     Zr1355   2.404   1_554  S
O1318      C1319   1.285       .  A
C1319      C1543   1.485       .  S
O1320     Zr1332   2.359   1_554  S
O1320      C1322   1.264       .  A
O1321     Zr1356   2.560       .  S
O1321      C1322   1.305       .  A
C1322      C1680   1.512   1_554  S
O1323     Zr1332   2.357       .  S
O1323      C1325   1.247       .  A
O1324     Zr1355   2.531       .  S
O1324      C1325   1.299       .  A
C1325      C1820   1.493       .  S
O1326     Zr1329   2.451       .  S
O1326      C1328   1.292       .  A
O1327     Zr1356   2.484       .  S
O1327      C1328   1.300       .  A
C1328      C1459   1.501       .  S
Zr1329     O1330   2.434       .  S
Zr1329     O1331   2.434       .  S
Zr1329     O1335   2.366       .  S
Zr1329     O1336   2.381       .  S
Zr1329     O1359   2.384       .  S
Zr1329     O1361   2.352       .  S
O1330      H1373   0.989       .  S
O1331      H1372   0.989       .  S
O1331      H1376   0.991       .  S
Zr1332     O1333   2.439   1_556  S
Zr1332     O1334   2.430       .  S
Zr1332     O1336   2.366   1_556  S
Zr1332     O1335   2.372   1_556  S
Zr1332     O1360   2.379       .  S
Zr1332     O1362   2.346       .  S
O1333      H1374   0.989       .  S
O1333      H1377   0.989       .  S
O1334      H1367   0.990       .  S
O1335     Zr1355   2.403   1_554  S
O1336     Zr1356   2.393       .  S
O1336      H1363   0.965       .  S
O1337     Zr1349   2.389       .  S
O1337      C1339   1.265       .  A
O1338     Zr1356   2.516       .  S
O1338      C1339   1.289       .  A
C1339      C1809   1.516       .  S
O1340     Zr1352   2.461       .  S
O1340      C1342   1.292       .  A
O1341     Zr1355   2.460       .  S
O1341      C1342   1.295       .  A
C1342      C1445   1.485       .  S
O1343     Zr1352   2.519       .  S
O1343      C1345   1.304       .  A
O1344     Zr1356   2.364   1_556  S
O1344      C1345   1.278       .  A
C1345      C1526   1.481       .  S
O1346     Zr1349   2.388       .  S
O1346      C1348   1.276   1_554  A
O1347     Zr1355   2.526       .  S
O1347      C1348   1.306       .  A
C1348      C1669   1.491   1_556  S
Zr1349     O1350   2.432   1_554  S
Zr1349     O1351   2.434       .  S
Zr1349     O1357   2.373   1_554  S
Zr1349     O1358   2.368   1_554  S
Zr1349     O1361   2.354       .  S
Zr1349     O1359   2.383       .  S
O1350      H1370   0.987       .  S
O1350      H1375   0.989       .  S
O1351      H1371   0.991       .  S
Zr1352     O1353   2.431       .  S
Zr1352     O1354   2.443       .  S
Zr1352     O1358   2.402       .  S
Zr1352     O1357   2.331       .  S
Zr1352     O1362   2.362       .  S
Zr1352     O1360   2.342       .  S
O1353      H1369   0.990       .  S
O1354      H1368   0.989       .  S
O1354      H1378   0.989       .  S
Zr1355     O1358   2.410       .  S
Zr1355     O1360   2.401       .  S
Zr1355     O1361   2.391   1_556  S
Zr1356     O1357   2.430   1_554  S
Zr1356     O1359   2.418       .  S
Zr1356     O1362   2.368   1_554  S
O1357      H1365   0.964       .  S
O1360      H1364   0.962       .  S
O1361      H1366   0.963       .  S
O1379     Zr1391   2.374       .  S
O1379      C1381   1.265       .  A
O1380     Zr1417   2.526       .  S
O1380      C1381   1.301       .  A
C1381      C1711   1.502       .  S
O1382     Zr1394   2.444       .  S
O1382      C1384   1.291       .  A
O1383     Zr1418   2.451       .  S
O1383      C1384   1.291       .  A
C1384      C1442   1.509       .  S
O1385     Zr1394   2.380       .  S
O1385      C1387   1.276       .  A
O1386     Zr1417   2.420       .  S
O1386      C1387   1.293       .  A
C1387      C1599   1.458       .  S
O1388     Zr1391   2.379       .  S
O1388      C1390   1.276       .  A
O1389     Zr1418   2.546       .  S
O1389      C1390   1.310       .  A
C1390      C1484   1.506       .  S
Zr1391     O1392   2.439       .  S
Zr1391     O1393   2.439       .  S
Zr1391     O1397   2.355       .  S
Zr1391     O1398   2.365       .  S
Zr1391     O1421   2.353       .  S
Zr1391     O1423   2.383       .  S
O1392      H1435   0.990       .  S
O1393      H1434   0.990       .  S
O1393      H1438   0.990       .  S
Zr1394     O1395   2.434       .  S
Zr1394     O1396   2.435       .  S
Zr1394     O1398   2.353       .  S
Zr1394     O1397   2.384       .  S
Zr1394     O1422   2.389       .  S
Zr1394     O1424   2.333       .  S
O1395      H1436   0.990       .  S
O1395      H1439   0.990       .  S
O1396      H1429   0.991       .  S
O1397     Zr1417   2.409       .  S
O1398     Zr1418   2.384       .  S
O1398      H1425   0.968       .  S
O1399     Zr1411   2.371       .  S
O1399      C1401   1.275       .  A
O1400     Zr1418   2.410       .  S
O1400      C1401   1.286       .  A
C1401      C1585   1.440       .  S
O1402     Zr1414   2.395       .  S
O1402      C1404   1.280       .  A
O1403     Zr1417   2.517       .  S
O1403      C1404   1.304       .  A
C1404      C1470   1.518       .  S
O1405     Zr1414   2.405       .  S
O1405      C1407   1.269       .  A
O1406     Zr1418   2.517       .  S
O1406      C1407   1.296       .  A
C1407      C1697   1.508       .  S
O1408     Zr1411   2.434       .  S
O1408      C1410   1.288       .  A
O1409     Zr1417   2.487       .  S
O1409      C1410   1.298       .  A
C1410      C1456   1.521       .  S
Zr1411     O1412   2.434       .  S
Zr1411     O1413   2.435       .  S
Zr1411     O1419   2.365       .  S
Zr1411     O1420   2.341       .  S
Zr1411     O1423   2.326       .  S
Zr1411     O1421   2.377       .  S
O1412      H1432   0.990       .  S
O1412      H1437   0.990       .  S
O1413      H1433   0.991       .  S
Zr1414     O1415   2.442       .  S
Zr1414     O1416   2.451       .  S
Zr1414     O1420   2.357       .  S
Zr1414     O1419   2.374       .  S
Zr1414     O1424   2.371       .  S
Zr1414     O1422   2.348       .  S
O1415      H1431   0.990       .  S
O1416      H1430   0.990       .  S
O1416      H1440   0.990       .  S
Zr1417     O1420   2.380       .  S
Zr1417     O1422   2.410       .  S
Zr1417     O1423   2.379       .  S
Zr1418     O1419   2.429       .  S
Zr1418     O1421   2.388       .  S
Zr1418     O1424   2.395       .  S
O1419      H1427   0.967       .  S
O1422      H1426   0.964       .  S
O1423      H1428   0.965       .  S
C1441      C1442   1.411       .  A
C1441      C1446   1.400       .  A
C1441      H1448   1.083       .  S
C1442      C1443   1.424       .  A
C1443      C1444   1.416       .  A
C1443      N1450   1.432       .  S
C1444      C1445   1.404       .  A
C1444      H1449   1.084       .  S
C1445      C1446   1.411       .  A
C1446      N1447   1.440       .  S
N1447      O1451   1.263       .  A
N1447      O1452   1.262       .  A
N1450      O1453   1.261       .  A
N1450      O1454   1.262       .  A
C1455      C1456   1.414       .  A
C1455      C1460   1.400       .  A
C1455      H1462   1.082       .  S
C1456      C1457   1.425       .  A
C1457      C1458   1.428       .  A
C1457      N1464   1.437       .  S
C1458      C1459   1.413       .  A
C1458      H1463   1.083       .  S
C1459      C1460   1.412       .  A
C1460      N1461   1.441       .  S
N1461      O1465   1.263       .  A
N1461      O1466   1.263       .  A
N1464      O1467   1.263       .  A
N1464      O1468   1.263       .  A
C1469      C1470   1.417       .  A
C1469      C1474   1.401       .  A
C1469      H1476   1.084       .  S
C1470      C1471   1.418       .  A
C1471      C1472   1.420       .  A
C1471      N1478   1.432       .  S
C1472      C1473   1.418       .  A
C1472      H1477   1.083       .  S
C1473      C1474   1.406       .  A
C1474      N1475   1.425       .  S
N1475      O1479   1.262       .  A
N1475      O1480   1.262       .  A
N1478      O1481   1.258       .  A
N1478      O1482   1.263       .  A
C1483      C1484   1.404       .  A
C1483      C1488   1.404       .  A
C1483      H1490   1.083       .  S
C1484      C1485   1.427       .  A
C1485      C1486   1.436       .  A
C1485      N1492   1.445       .  S
C1486      C1487   1.415       .  A
C1486      H1491   1.082       .  S
C1487      C1488   1.422       .  A
C1488      N1489   1.449       .  S
N1489      O1493   1.263       .  A
N1489      O1494   1.262       .  A
N1492      O1495   1.262       .  A
N1492      O1496   1.263       .  A
C1497      C1502   1.402       .  A
C1497      H1504   1.084       .  S
C1498      C1499   1.415       .  A
C1499      C1500   1.403       .  A
C1499      N1506   1.435       .  S
C1500      C1501   1.398       .  A
C1500      H1505   1.084       .  S
C1502      N1503   1.438       .  S
N1503      O1507   1.263       .  A
N1503      O1508   1.262       .  A
N1506      O1509   1.260       .  A
N1506      O1510   1.263       .  A
C1511      C1512   1.404       .  A
C1511      C1516   1.398       .  A
C1512      C1513   1.425       .  A
C1513      C1514   1.407       .  A
C1513      N1520   1.431       .  S
C1514      C1515   1.399       .  A
C1514      H1519   1.084       .  S
C1515      C1516   1.417       .  A
C1516      N1517   1.440       .  S
N1517      O1522   1.262       .  A
N1520      O1523   1.262       .  A
N1520      O1524   1.262       .  A
C1525      C1526   1.400       .  A
C1525      C1530   1.408       .  A
C1525      H1532   1.084       .  S
C1526      C1527   1.426       .  A
C1527      C1528   1.393       .  A
C1527      N1534   1.436       .  S
C1528      C1529   1.390       .  A
C1528      H1533   1.085       .  S
C1529      C1530   1.425       .  A
C1530      N1531   1.444       .  S
N1531      O1535   1.263       .  A
N1531      O1536   1.262       .  A
N1534      O1537   1.262   1_556  A
N1534      O1538   1.263       .  A
C1539      C1540   1.414       .  A
C1539      C1544   1.406       .  A
C1539      H1546   1.082       .  S
C1540      C1541   1.420       .  A
C1541      C1542   1.418       .  A
C1541      N1548   1.443       .  S
C1542      C1543   1.408       .  A
C1542      H1547   1.080       .  S
C1543      C1544   1.409       .  A
C1544      N1545   1.444       .  S
N1545      O1549   1.262       .  A
N1545      O1550   1.262       .  A
N1548      O1551   1.260       .  A
N1548      O1552   1.262       .  A
C1553      C1554   1.422       .  A
C1553      C1558   1.408       .  A
C1553      H1560   1.084       .  S
C1554      C1555   1.414       .  A
C1555      C1556   1.403       .  A
C1555      N1562   1.422       .  S
C1556      C1557   1.408       .  A
C1556      H1561   1.085       .  S
C1557      C1558   1.403       .  A
C1558      N1559   1.426       .  S
N1559      O1563   1.262       .  A
N1559      O1564   1.260       .  A
N1562      O1565   1.258       .  A
N1562      O1566   1.263       .  A
C1567      C1568   1.406       .  A
C1567      C1572   1.417       .  A
C1567      H1574   1.082       .  S
C1568      C1569   1.429       .  A
C1569      C1570   1.419       .  A
C1569      N1576   1.439       .  S
C1570      C1571   1.405       .  A
C1570      H1575   1.083       .  S
C1571      C1572   1.428       .  A
C1572      N1573   1.438       .  S
N1573      O1577   1.262       .  A
N1573      O1578   1.263       .  A
N1576      O1579   1.263       .  A
N1576      O1580   1.263       .  A
C1581      C1582   1.404       .  A
C1581      C1586   1.380       .  A
C1581      H1588   1.083       .  S
C1582      C1583   1.404       .  A
C1583      C1584   1.394       .  A
C1583      N1590   1.439       .  S
C1584      C1585   1.405       .  A
C1584      H1589   1.084       .  S
C1585      C1586   1.400       .  A
C1586      N1587   1.435       .  S
N1587      O1591   1.262       .  A
N1587      O1592   1.262       .  A
N1590      O1593   1.262       .  A
N1590      O1594   1.263       .  A
C1595      C1596   1.399       .  A
C1595      C1600   1.399       .  A
C1595      H1602   1.084       .  S
C1596      C1597   1.412       .  A
C1597      C1598   1.367       .  A
C1597      N1604   1.433       .  S
C1598      C1599   1.391       .  A
C1598      H1603   1.077       .  S
C1599      C1600   1.420       .  A
C1600      N1601   1.435       .  S
N1601      O1605   1.263       .  A
N1601      O1606   1.262       .  A
N1604      O1607   1.261       .  A
N1604      O1608   1.263       .  A
C1609      C1610   1.407       .  A
C1609      C1614   1.415       .  A
C1609      H1616   1.084       .  S
C1610      C1611   1.407       .  A
C1611      C1612   1.397       .  A
C1611      N3506   1.441       .  S
C1612      C1613   1.404       .  A
C1612      H3505   1.085       .  S
C1613      C1614   1.418       .  A
C1614      N1615   1.443       .  S
N1615      O1619   1.263       .  A
N1615      O1620   1.262       .  A
H1617      C3500   1.085   1_455  S
N1618      C3499   1.441       .  S
N1618      O1621   1.263       .  A
N1618      O1622   1.262       .  A
C1623      C3512   1.404       .  A
C1623      C1628   1.401       .  A
C1623      H1630   1.083       .  S
C1624      C3511   1.404   1_455  A
C1624      C1625   1.421       .  A
C1625      C1626   1.413       .  A
C1625      N1632   1.434       .  S
C1626      C1627   1.403       .  A
C1626      H1631   1.083       .  S
C1627      C3516   1.420   1_455  A
C1628      C3515   1.420       .  A
C1628      N1629   1.440       .  S
N1629      O1633   1.263       .  A
N1629      O1634   1.263       .  A
N1632      O1635   1.263       .  A
N1632      O1636   1.262       .  A
C1637      C1638   1.407       .  A
C1637      C1642   1.391       .  A
C1637      H1644   1.070       .  S
C1638      C1639   1.407       .  A
C1639      C1640   1.396       .  A
C1639      N1646   1.430       .  S
C1640      C1641   1.405       .  A
C1640      H1645   1.085       .  S
C1641      C1642   1.397       .  A
C1642      N1643   1.444       .  S
N1643      O1647   1.262       .  A
N1643      O1648   1.262       .  A
N1646      O1649   1.262       .  A
N1646      O1650   1.262       .  A
C1651      C1652   1.396       .  A
C1651      C1656   1.394       .  A
C1651      H1658   1.084       .  S
C1652      C1653   1.409       .  A
C1653      C1654   1.395       .  A
C1653      N1660   1.432       .  S
C1654      C1655   1.405       .  A
C1654      H1659   1.084       .  S
C1655      C1656   1.417       .  A
C1656      N1657   1.436   1_554  S
N1657      O1661   1.262       .  A
N1657      O1662   1.262       .  A
N1660      O1663   1.262       .  A
N1660      O1664   1.261       .  A
C1665      C1666   1.410   1_556  A
C1665      C1670   1.411       .  A
C1665      H1672   1.082       .  S
C1666      C1667   1.412       .  A
C1667      C1668   1.417       .  A
C1667      N1674   1.442       .  S
C1668      C1669   1.414       .  A
C1668      H1673   1.083       .  S
C1669      C1670   1.412   1_554  A
C1670      N1671   1.442       .  S
N1671      O1675   1.263       .  A
N1671      O1676   1.262       .  A
N1674      O1677   1.262       .  A
N1674      O1678   1.263       .  A
C1679      C1680   1.411   1_554  A
C1679      C1684   1.408   1_554  A
C1679      H1686   1.084       .  S
C1680      C1681   1.427       .  A
C1681      C1682   1.419       .  A
C1681      N1688   1.438       .  S
C1682      C1683   1.406       .  A
C1682      H1687   1.083       .  S
C1683      C1684   1.413       .  A
C1684      N1685   1.430   1_556  S
N1685      O1689   1.263       .  A
N1685      O1690   1.259       .  A
N1688      O1691   1.258       .  A
N1688      O1692   1.263       .  A
C1693      C1694   1.414       .  A
C1693      C1698   1.418       .  A
C1693      H1700   1.084       .  S
C1694      C1695   1.413       .  A
C1695      C1696   1.404       .  A
C1695      N1702   1.445       .  S
C1696      C1697   1.409       .  A
C1696      H1701   1.071       .  S
C1697      C1698   1.414       .  A
C1698      N1699   1.437       .  S
N1699      O1703   1.263       .  A
N1699      O1704   1.260       .  A
N1702      O1705   1.262       .  A
N1702      O1706   1.263       .  A
C1707      C1708   1.419       .  A
C1707      C1712   1.417       .  A
C1707      H1714   1.084       .  S
C1708      C1709   1.401       .  A
C1709      C1710   1.394       .  A
C1709      N1716   1.441       .  S
C1710      C1711   1.418       .  A
C1710      H1715   1.079       .  S
C1711      C1712   1.411       .  A
C1712      N1713   1.436       .  S
N1713      O1717   1.262       .  A
N1713      O1718   1.262       .  A
N1716      O1719   1.262       .  A
N1716      O1720   1.263       .  A
C1721      C1726   1.404       .  A
C1721      H1728   1.082       .  S
C1722      C1723   1.410   1_565  A
C1723      C1724   1.406       .  A
C1723      N1730   1.437   1_545  S
C1724      H1729   1.083       .  S
C1725      C1726   1.410       .  A
C1726      N1727   1.436       .  S
N1727      O1731   1.262       .  A
N1727      O1732   1.262       .  A
N1730      O1733   1.262       .  A
C1735      C1736   1.393   1_565  A
C1735      C1740   1.396       .  A
C1735      H1742   1.085       .  S
C1737      C1738   1.395       .  A
C1737      N1744   1.426       .  S
C1738      C1739   1.392       .  A
C1738      H1743   1.084       .  S
C1740      N1741   1.432       .  S
N1741      O1745   1.263       .  A
N1741      O1746   1.260       .  A
N1744      O1747   1.261       .  A
N1744      O1748   1.262       .  A
C1749      C1750   1.414       .  A
C1749      C1754   1.424       .  A
C1749      H1756   1.082       .  S
C1750      C1751   1.415       .  A
C1751      C1752   1.413       .  A
C1751      N1758   1.441       .  S
C1752      C1753   1.411       .  A
C1752      H1757   1.079       .  S
C1753      C2897   1.507       .  S
C1753      C1754   1.419       .  A
C1754      N3643   1.445       .  S
N1755      C3642   1.445       .  S
N1755      O1759   1.263       .  A
N1755      O3648   1.263       .  A
N1758      O1761   1.262       .  A
N1758      O1762   1.263       .  A
O1760      N3643   1.263       .  A
C1763      C1764   1.405       .  A
C1763      C1768   1.420       .  A
C1763      H1770   1.084       .  S
C1764      C3653   1.426       .  A
C1765      C3652   1.426   1_455  A
C1765      C1766   1.422       .  A
C1765      N1772   1.438       .  S
C1766      C3655   1.406   1_455  A
C1766      H1771   1.084       .  S
C1767      C3027   1.517       .  S
C1767      C3654   1.406       .  A
C1767      C1768   1.430       .  A
C1768      N1769   1.440       .  S
N1769      O1773   1.263       .  A
N1769      O1774   1.263       .  A
N1772      O1775   1.263       .  A
N1772      O1776   1.263       .  A
C1777      C1778   1.405       .  A
C1777      C1782   1.405       .  A
C1777      H1784   1.084       .  S
C1778      C2838   1.470       .  S
C1778      C3667   1.408       .  A
C1779      C3666   1.408       .  A
C1779      C1780   1.396       .  A
C1779      N1786   1.438   1_655  S
C1780      C3669   1.411       .  A
C1780      H1785   1.083   1_655  S
C1781      C3668   1.410       .  A
C1781      C1782   1.417       .  A
C1782      N1783   1.433       .  S
N1783      O1787   1.262       .  A
N1786      O1789   1.261       .  A
C1791      C1792   1.393       .  A
C1791      C1796   1.388       .  A
C1791      H1798   1.085       .  S
C1792      C3681   1.408       .  A
C1793      C3680   1.409       .  A
C1793      C1794   1.400       .  A
C1793      N1800   1.444       .  S
C1794      C1795   1.408       .  A
C1794      H1799   1.083       .  S
C1795      C3684   1.415   1_455  A
C1796      C3683   1.414       .  A
C1796      N1797   1.431       .  S
N1797      O1801   1.262       .  A
N1800      O1803   1.263       .  A
N1800      O1804   1.263       .  A
C1805      C1806   1.409       .  A
C1805      C1810   1.421       .  A
C1805      H1812   1.084       .  S
C1806      C1807   1.424   1_556  A
C1807      C1808   1.411       .  A
C1807      N1814   1.433       .  S
C1808      C1809   1.405       .  A
C1808      H1813   1.084       .  S
C1809      C1810   1.427   1_554  A
C1810      N1811   1.436       .  S
N1811      O1815   1.260       .  A
N1811      O1816   1.263       .  A
N1814      O1817   1.264       .  A
N1814      O1818   1.260       .  A
C1819      C1820   1.395   1_554  A
C1819      C1824   1.404       .  A
C1819      H1826   1.084       .  S
C1820      C1821   1.438       .  A
C1821      C1822   1.397       .  A
C1821      N1828   1.439       .  S
C1822      C1823   1.387   1_556  A
C1822      H1827   1.084       .  S
C1823      C1824   1.430       .  A
C1824      N1825   1.435       .  S
N1825      O1829   1.262       .  A
N1825      O1830   1.262       .  A
N1828      O1831   1.262       .  A
N1828      O1832   1.264       .  A
C1833      C1834   1.416       .  A
C1833      C1838   1.447       .  A
C1833      H1840   1.082       .  S
C1835      C1836   1.423       .  A
C1835      N1842   1.441   1_545  S
C1836      H1841   1.084   1_545  S
C1837      C1838   1.440       .  A
C1838      N1839   1.438       .  S
N1839      O1843   1.262       .  A
N1839      O1844   1.258       .  A
N1842      O1845   1.263       .  A
N1842      O1846   1.263       .  A
C1847      C1848   1.408       .  A
C1847      C1852   1.419       .  A
C1847      H1854   1.080   1_556  S
C1848      C1849   1.433       .  A
C1849      C1850   1.441       .  A
C1849      N1856   1.438       .  S
C1850      C1851   1.416       .  A
C1850      H1855   1.083       .  S
C1851      C1852   1.422       .  A
C1852      N1853   1.440   1_556  S
N1853      O1857   1.263       .  A
N1853      O1858   1.262       .  A
N1856      O1860   1.263       .  A
C1861      C3750   1.399       .  A
C1861      C1866   1.390   1_554  A
C1861      H1868   1.081       .  S
C1862      C3749   1.399       .  A
C1862      C1863   1.411   1_655  A
C1863      C1864   1.394   1_554  A
C1863      N1870   1.442       .  S
C1864      C3753   1.395   1_455  A
C1864      H1869   1.082       .  S
C1865      C3752   1.395       .  A
C1865      C1866   1.405       .  A
C1866      N1867   1.441       .  S
N1867      O1871   1.263       .  A
N1867      O1872   1.262       .  A
N1870      O1873   1.261       .  A
N1870      O1874   1.263       .  A
C1875      C3764   1.413       .  A
C1875      C1880   1.386       .  A
C1875      H1882   1.084       .  S
C1876      C3763   1.413       .  A
C1876      C1877   1.405   1_556  A
C1877      C1878   1.393       .  A
C1877      N1884   1.442       .  S
C1878      C1879   1.407   1_554  A
C1878      H1883   1.082       .  S
C1879      C3768   1.396       .  A
C1880      C3767   1.396       .  A
C1880      N1881   1.441       .  S
N1881      O1885   1.263       .  A
N1881      O1886   1.263       .  A
N1884      O1887   1.262       .  A
N1884      O1888   1.263       .  A
O1889     Zr1901   2.365   1_554  S
O1889      C1891   1.260       .  A
O1890      C1891   1.305       .  A
C1891      C2767   1.479       .  S
O1892     Zr1904   2.428       .  S
O1892      C2838   1.286   1_545  A
O1893     Zr1928   2.435       .  S
O1893      C1894   1.290       .  A
C1894      O2836   1.286       .  A
O1895     Zr1904   2.435       .  S
O1896     Zr1927   2.372   1_556  S
O1896      C1897   1.259       .  A
C1897      C2823   1.441       .  S
O1898     Zr1901   2.402       .  S
O1898      C2844   1.277   1_545  A
O1899     Zr1928   2.598       .  S
O1899      C1900   1.320       .  A
C1900      O2842   1.277       .  A
C1900      C2792   1.537       .  S
Zr1901     O1902   2.436       .  S
Zr1901     O1903   2.436   1_556  S
Zr1901     O1907   2.361       .  S
Zr1901     O1908   2.375       .  S
Zr1901     O2875   2.336   1_546  S
Zr1901     O1933   2.397   1_556  S
O1902      H1945   0.990       .  S
O1903      H1944   0.989       .  S
O1903      H1948   0.989       .  S
Zr1904     O1905   2.435       .  S
Zr1904     O1908   2.378       .  S
Zr1904     O1907   2.360       .  S
O1905      H1946   0.990       .  S
O1905      H1949   0.991       .  S
O1906      H1939   0.990       .  S
O1908     Zr2872   2.380   1_545  S
O1908      H1935   0.965       .  S
O1909     Zr1921   2.450       .  S
O1910     Zr1928   2.332       .  S
O1910      C1911   1.276   1_556  A
C1911      C2806   1.437       .  S
O1912     Zr1924   2.414       .  S
O1912      C2858   1.281       .  A
O1913     Zr1927   2.606   1_655  S
O1913      C1914   1.321       .  A
C1914      O2856   1.281       .  A
C1914      C2778   1.550       .  S
O1915     Zr1924   2.389   1_556  S
O1915      C1917   1.266       .  A
O1916      C1917   1.296       .  A
C1917      C2750   1.514       .  S
O1918     Zr1921   2.432   1_455  S
O1918      C2864   1.288       .  A
O1919     Zr1927   2.389       .  S
O1919      C1920   1.283       .  A
C1920      O2862   1.288   1_545  A
C1920      C2736   1.442       .  S
Zr1921     O1922   2.434       .  S
Zr1921     O1929   2.337       .  S
Zr1921     O1930   2.382       .  S
O1922      H1942   0.989       .  S
O1922      H1947   0.991       .  S
O1923      H1943   0.989       .  S
Zr1924     O1925   2.436       .  S
Zr1924     O1926   2.440   1_554  S
Zr1924     O1930   2.353       .  S
Zr1924     O1929   2.378       .  S
Zr1924     O1934   2.394   1_554  S
Zr1924     O2876   2.366   1_554  S
O1925      H1941   0.989       .  S
O1926      H1940   0.990       .  S
O1926      H1950   0.990   1_556  S
Zr1927     O2874   2.374   1_445  S
Zr1927     O1932   2.395   1_454  S
Zr1928     O2852   2.380       .  S
Zr1928     O1931   2.374   1_556  S
O1929      H1937   0.967       .  S
O1930     Zr2871   2.375   1_655  S
O1931     Zr2845   2.335   1_554  S
O1932     Zr2868   2.366   1_546  S
O1932      H1936   0.964       .  S
O1933      H1938   0.965       .  S
O1951     Zr1963   2.402       .  S
O1952     Zr2933   2.544       .  S
O1952      C1953   1.305       .  A
O1954     Zr1966   2.429       .  S
O1954      C1956   1.261       .  A
O1955     Zr1990   2.344   1_545  S
O1955      C1956   1.250       .  A
C1956      C2669   1.459       .  S
O1957     Zr1966   2.427       .  S
O1958     Zr1989   2.397   1_545  S
O1958      C1959   1.284       .  A
C1959      C2739   1.472       .  S
O1960     Zr1963   2.370       .  S
O1960      C1962   1.273       .  A
O1961     Zr2934   2.503       .  S
O1961      C1962   1.303       .  A
C1962      C2638   1.479       .  S
Zr1963     O1964   2.437       .  S
Zr1963     O1965   2.436       .  S
Zr1963     O1969   2.370       .  S
Zr1963     O1970   2.340       .  S
Zr1963     O1993   2.372       .  S
O1964      H2007   0.990       .  S
O1965      H2006   0.989       .  S
O1965      H2010   0.989       .  S
Zr1966     O2911   2.433   1_545  S
Zr1966     O1968   2.437       .  S
Zr1966     O2914   2.409   1_545  S
Zr1966     O2913   2.375   1_545  S
Zr1966     O1996   2.404       .  S
O1967     Zr2910   2.433       .  S
O1967      H2008   0.989       .  S
O1967      H2011   0.991       .  S
O1968      H2001   0.990       .  S
O1969     Zr2910   2.373       .  S
O1970     Zr2910   2.412       .  S
O1970     Zr2934   2.423       .  S
O1970      H1997   0.968       .  S
O1971      C1973   1.291       .  A
O1972     Zr2934   2.418       .  S
O1972      C1973   1.288       .  A
C1973      C2725   1.492       .  S
O1974     Zr1986   2.347       .  S
O1974      C1976   1.271       .  A
O1975     Zr1989   2.506   1_545  S
O1975      C1976   1.303       .  A
C1976      C2652   1.471       .  S
O1977      C1979   1.271   1_455  A
O1978     Zr1990   2.536   1_545  S
O1978      C1979   1.305       .  A
C1979      C2708   1.514       .  S
O1980     Zr1983   2.496       .  S
O1980      C1982   1.299       .  A
O1981     Zr1989   2.341       .  S
O1981      C1982   1.274       .  A
C1982      C2683   1.463       .  S
Zr1983     O1984   2.434   1_565  S
Zr1983     O2929   2.433       .  S
Zr1983     O1992   2.354   1_565  S
Zr1983     O2939   2.335       .  S
O1984      H2004   0.990       .  S
O1984      H2009   0.990       .  S
O1985     Zr2927   2.433       .  S
Zr1986     O1987   2.434       .  S
Zr1986     O1988   2.437       .  S
Zr1986     O1992   2.368       .  S
Zr1986     O1994   2.381       .  S
O1987      H2003   0.990       .  S
O1988      H2012   0.990       .  S
Zr1989     O2896   2.538       .  S
Zr1989     O1992   2.396   1_565  S
Zr1989     O1994   2.390   1_565  S
Zr1989     O2939   2.385       .  S
Zr1990     O2905   2.489       .  S
Zr1990     O2916   2.428       .  S
Zr1990     O2914   2.420       .  S
Zr1990     O1991   2.398   1_565  S
Zr1990     O2937   2.387       .  S
Zr1990     O1996   2.396   1_565  S
O1991      H1999   0.966   1_655  S
O1993     Zr2934   2.391       .  S
O1994      H1998   0.967       .  S
O1995     Zr2927   2.336       .  S
O1995     Zr2933   2.384       .  S
O1995      H2000   0.961       .  S
O2013     Zr2025   2.394       .  S
O2013      C2015   1.273       .  A
O2014      C2015   1.300       .  A
C2015      C2627   1.497       .  S
O2016     Zr2028   2.490       .  S
O2016      C2018   1.297       .  A
O2017     Zr2052   2.417       .  S
O2017      C2018   1.289       .  A
C2018      C2568   1.499       .  S
O2019      C2021   1.288   1_454  A
O2020     Zr2051   2.344       .  S
O2020      C2021   1.266       .  A
C2021      C2820   1.451   1_655  S
O2022     Zr2025   2.388   1_554  S
O2022      C2024   1.273       .  A
O2023     Zr2052   2.447       .  S
O2023      C2024   1.288       .  A
C2024      C2596   1.449       .  S
Zr2025     O2026   2.434   1_556  S
Zr2025     O2027   2.435       .  S
Zr2025     O2031   2.359   1_556  S
Zr2025     O2032   2.372   1_556  S
Zr2025     O2055   2.354       .  S
Zr2025     O2057   2.370       .  S
O2026      H2069   0.990       .  S
O2027      H2068   0.990       .  S
O2027      H2072   0.991       .  S
Zr2028     O2029   2.436       .  S
Zr2028     O2032   2.350       .  S
Zr2028     O2031   2.391       .  S
O2029      H2070   0.990       .  S
O2029      H2073   0.989       .  S
O2030      H2063   0.989       .  S
O2032     Zr2052   2.389       .  S
O2032      H2059   0.963       .  S
O2033     Zr2045   2.435       .  S
O2033      C2035   1.285       .  A
O2034     Zr2052   2.340       .  S
C2035      C2809   1.428       .  S
O2036     Zr2048   2.421       .  S
O2036      C2038   1.271       .  A
O2037     Zr2051   2.424       .  S
O2037      C2038   1.272       .  A
C2038      C2582   1.471       .  S
O2039     Zr2048   2.392   1_554  S
O2039      C2041   1.275       .  A
O2040      C2041   1.302       .  A
C2041      C2610   1.492       .  S
O2042     Zr2045   2.426       .  S
O2042      C2044   1.285       .  A
O2043     Zr2051   2.443       .  S
O2043      C2044   1.291       .  A
C2044      C2554   1.472       .  S
Zr2045     O2046   2.437       .  S
Zr2045     O2053   2.376       .  S
Zr2045     O2054   2.337       .  S
O2046      H2066   0.989       .  S
O2046      H2071   0.991       .  S
O2047      H2067   0.990       .  S
Zr2048     O2049   2.433       .  S
Zr2048     O2050   2.440   1_556  S
Zr2048     O2054   2.356       .  S
Zr2048     O2053   2.348       .  S
Zr2048     O2058   2.377   1_556  S
Zr2048     O2056   2.357       .  S
O2049      H2065   0.990       .  S
O2050      H2064   0.989       .  S
O2050      H2074   0.989       .  S
Zr2051     O2054   2.385       .  S
Zr2051     O2056   2.445       .  S
Zr2052     O2055   2.396   1_554  S
O2053      H2061   0.964       .  S
O2056      H2060   0.967       .  S
O2057      H2062   0.966       .  S
O2075     Zr2087   2.451       .  S
O2075      C2077   1.289       .  A
O2076     Zr2113   2.327       .  S
O2076      C2077   1.273       .  A
C2077      C2540   1.449       .  S
O2078     Zr2090   2.372       .  S
O2078      C2080   1.255       .  A
O2079     Zr2114   2.544       .  S
O2079      C2080   1.296       .  A
C2080      C2498   1.508       .  S
O2081     Zr2090   2.374       .  S
O2082     Zr2113   2.559       .  S
O2082      C2083   1.306       .  A
O2084      C2086   1.283       .  A
O2085     Zr2114   2.462       .  S
O2085      C2086   1.296       .  A
C2086      C2557   1.473       .  S
Zr2087     O2088   2.435       .  S
Zr2087     O2089   2.435       .  S
Zr2087     O2093   2.360       .  S
Zr2087     O2119   2.339       .  S
O2088      H2131   0.990       .  S
O2089      H2130   0.990       .  S
O2089      H2134   0.990       .  S
Zr2090     O2091   2.436       .  S
Zr2090     O2092   2.434       .  S
Zr2090     O2094   2.389       .  S
Zr2090     O2118   2.376       .  S
Zr2090     O2120   2.366       .  S
O2091      H2132   0.990       .  S
O2091      H2135   0.991       .  S
O2092      H2125   0.990       .  S
O2093     Zr2113   2.381       .  S
O2094     Zr2114   2.405       .  S
O2094      H2121   0.967       .  S
O2095      C2097   1.272       .  A
O2096     Zr2114   2.528       .  S
O2096      C2097   1.301       .  A
C2097      C2694   1.502       .  S
O2098     Zr2110   2.416       .  S
O2099     Zr2113   2.465       .  S
O2099      C2100   1.296       .  A
C2100      C2571   1.492       .  S
O2101     Zr2110   2.458       .  S
O2101      C2103   1.290       .  A
O2102     Zr2114   2.326       .  S
O2102      C2103   1.275       .  A
C2103      C2526   1.441       .  S
O2104     Zr2107   2.384       .  S
O2104      C2106   1.265       .  A
O2105     Zr2113   2.522       .  S
O2105      C2106   1.295       .  A
C2106      C2512   1.519       .  S
Zr2107     O2108   2.437       .  S
Zr2107     O2109   2.435       .  S
Zr2107     O2116   2.386       .  S
Zr2107     O2119   2.360       .  S
O2108      H2133   0.989       .  S
O2109      H2129   0.990       .  S
Zr2110     O2111   2.434       .  S
Zr2110     O2112   2.436       .  S
Zr2110     O2115   2.339       .  S
Zr2110     O2120   2.358       .  S
Zr2110     O2118   2.368       .  S
O2111      H2127   0.990       .  S
O2112      H2126   0.990       .  S
O2112      H2136   0.989       .  S
Zr2113     O2116   2.402       .  S
Zr2113     O2119   2.420       .  S
Zr2114     O2115   2.401       .  S
Zr2114     O2117   2.392       .  S
Zr2114     O2120   2.397       .  S
O2115      H2123   0.962       .  S
O2118      H2122   0.965       .  S
O2119      H2124   0.965       .  S
O2137     Zr2149   2.424       .  S
O2137      C2139   1.285       .  A
O2138     Zr2175   2.399       .  S
O2138      C2139   1.281   1_556  A
C2139      C2599   1.469       .  S
O2140     Zr2152   2.406   1_554  S
O2140      C2142   1.282       .  A
O2141     Zr2176   2.498       .  S
O2141      C2142   1.300       .  A
C2142      C2484   1.503       .  S
O2143     Zr2152   2.454       .  S
O2143      C3089   1.289   1_545  A
O2144     Zr2175   2.536       .  S
O2144      C2145   1.307       .  A
C2145      O3087   1.289       .  A
C2145      C2795   1.535       .  S
O2146     Zr2149   2.411       .  S
O2146      C3092   1.283       .  A
O2147     Zr2176   2.465       .  S
O2147      C2148   1.295       .  A
C2148      O3090   1.283       .  A
C2148      C2459   1.480       .  S
Zr2149     O2150   2.433       .  S
Zr2149     O2151   2.434       .  S
Zr2149     O2155   2.363       .  S
Zr2149     O3100   2.360       .  S
Zr2149     O2179   2.384       .  S
Zr2149     O2181   2.362       .  S
O2150      H2193   0.991       .  S
O2151      H2192   0.991       .  S
O2151      H2196   0.990       .  S
Zr2152     O2153   2.438   1_556  S
Zr2152     O2154   2.434       .  S
Zr2152     O2156   2.376   1_556  S
Zr2152     O3099   2.353   1_546  S
Zr2152     O2180   2.360       .  S
Zr2152     O2182   2.379       .  S
O2153      H2194   0.990       .  S
O2153      H2197   0.990       .  S
O2154      H2187   0.990       .  S
O2155     Zr3096   2.354   1_554  S
O2155     Zr2175   2.366   1_554  S
O2156     Zr3093   2.361   1_545  S
O2156     Zr2176   2.405       .  S
O2156      H2183   0.962       .  S
O2157     Zr3113   2.474   1_544  S
O2157      C2159   1.292       .  A
O2158     Zr2176   2.554       .  S
O2158      C2159   1.311       .  A
C2159      C2781   1.558       .  S
O2160     Zr2172   2.440       .  S
O2160      C3106   1.287   1_545  A
O2161     Zr2175   2.428       .  S
O2161      C2162   1.287       .  A
C2162      O3104   1.287       .  A
C2162      C2442   1.472       .  S
O2163     Zr2172   2.375       .  S
O2163      C2165   1.275       .  A
O2164     Zr2176   2.434   1_556  S
O2164      C2165   1.291       .  A
C2165      C2585   1.438       .  S
O2166     Zr2169   2.390       .  S
O2166      C2168   1.278       .  A
O2167     Zr2175   2.459       .  S
O2167      C2168   1.296       .  A
C2168      C2473   1.470       .  S
Zr2169     O3101   2.474   1_556  S
Zr2169     O2170   2.441       .  S
Zr2169     O2171   2.434   1_556  S
Zr2169     O3121   2.339       .  S
Zr2169     O2178   2.384       .  S
Zr2169     O2181   2.391   1_556  S
Zr2169     O2179   2.364   1_556  S
O2170      H3134   0.991       .  S
O2170      H2195   0.990       .  S
O2171      H2191   0.990       .  S
Zr2172     O2173   2.434       .  S
Zr2172     O2174   2.433       .  S
Zr2172     O3122   2.335   1_545  S
Zr2172     O2177   2.384       .  S
Zr2172     O2182   2.381       .  S
Zr2172     O2180   2.363       .  S
O2173      H2189   0.991       .  S
O2174      H2188   0.990       .  S
O2174      H2198   0.990       .  S
Zr2175     O2178   2.386       .  S
Zr2175     O3124   2.379       .  S
Zr2175     O2181   2.418   1_556  S
Zr2176     O2177   2.393   1_554  S
Zr2176     O3123   2.395   1_545  S
Zr2176     O2182   2.422   1_554  S
O2177     Zr3113   2.339   1_545  S
O2177      H2185   0.964       .  S
O2178     Zr3116   2.335       .  S
O2179     Zr3120   2.395       .  S
O2180     Zr3119   2.379   1_545  S
O2180      H2184   0.968       .  S
O2181      H2186   0.968       .  S
H2190      O3114   0.991       .  S
O2199     Zr2211   2.364       .  S
O2199      C2201   1.270       .  A
O2200     Zr3181   2.552   1_545  S
O2200      C2201   1.310       .  A
C2201      C2431   1.502       .  S
O2202     Zr3158   2.489       .  S
O2202      C2204   1.301       .  A
O2203     Zr3182   2.400       .  S
O2203      C2204   1.284       .  A
C2204      C2456   1.498       .  S
O2205     Zr2214   2.493       .  S
O2205      C2207   1.299       .  A
O2206     Zr2237   2.353       .  S
O2206      C2207   1.275       .  A
C2207      C2680   1.463       .  S
O2208     Zr2211   2.380       .  S
O2208      C2210   1.257       .  A
O2209     Zr3182   2.496       .  S
O2209      C2210   1.289       .  A
C2210      C2501   1.488       .  S
Zr2211     O2212   2.432       .  S
Zr2211     O2213   2.433       .  S
Zr2211     O2217   2.363       .  S
Zr2211     O2218   2.382       .  S
Zr2211     O2241   2.345       .  S
Zr2211     O2243   2.366       .  S
O2212      H2255   0.990       .  S
O2213      H2254   0.990       .  S
O2213      H2258   0.990       .  S
Zr2214     O3146   2.496       .  S
Zr2214     O3159   2.434       .  S
Zr2214     O2216   2.435       .  S
Zr2214     O3162   2.348       .  S
Zr2214     O3161   2.376       .  S
Zr2214     O2242   2.355       .  S
Zr2214     O2244   2.368       .  S
O2215     Zr3158   2.434       .  S
O2215      H2256   0.990       .  S
O2215      H2259   0.990       .  S
O2216      H2249   0.990       .  S
O2217     Zr3158   2.372       .  S
O2217     Zr3181   2.380   1_545  S
O2218     Zr3158   2.349       .  S
O2218     Zr3182   2.402       .  S
O2218      H2245   0.967       .  S
O2219     Zr2231   2.493       .  S
O2219      C2221   1.295       .  A
O2220     Zr2238   2.300       .  S
O2220      C2221   1.268       .  A
C2221      C2666   1.479       .  S
O2222     Zr2234   2.386       .  S
O2222      C2224   1.264       .  A
O2223     Zr2237   2.524       .  S
O2223      C2224   1.297       .  A
C2224      C2515   1.514       .  S
O2225     Zr2234   2.407       .  S
O2225      C2227   1.273       .  A
O2226     Zr2238   2.505       .  S
O2226      C2227   1.297       .  A
C2227      C2417   1.509       .  S
O2228     Zr2231   2.462       .  S
O2228      C2230   1.294       .  A
O2229     Zr2237   2.409       .  S
O2229      C2230   1.286       .  A
C2230      C2445   1.472       .  S
Zr2231     O2232   2.434       .  S
Zr2231     O3177   2.434       .  S
Zr2231     O2239   2.376       .  S
Zr2231     O2240   2.373       .  S
Zr2231     O3187   2.390       .  S
Zr2231     O3185   2.369       .  S
O2232      H2252   0.990       .  S
O2232      H2257   0.991       .  S
O2233     Zr3175   2.434   1_545  S
O2233      H2253   0.990       .  S
Zr2234     O2235   2.436       .  S
Zr2234     O2236   2.432       .  S
Zr2234     O2240   2.386       .  S
Zr2234     O2239   2.351       .  S
Zr2234     O2244   2.362       .  S
Zr2234     O2242   2.388       .  S
O2235      H2251   0.990       .  S
O2236      H2250   0.990       .  S
O2236      H2260   0.990       .  S
Zr2237     O3144   2.546       .  S
Zr2237     O3161   2.379       .  S
Zr2237     O2240   2.405       .  S
Zr2237     O2242   2.420       .  S
Zr2237     O3187   2.389       .  S
Zr2238     O3147   2.385       .  S
Zr2238     O3153   2.512       .  S
Zr2238     O3162   2.395       .  S
Zr2238     O2239   2.391       .  S
Zr2238     O3185   2.382       .  S
Zr2238     O2244   2.376       .  S
O2239      H2247   0.965       .  S
O2241     Zr3175   2.374   1_545  S
O2241     Zr3182   2.387       .  S
O2242      H2246   0.966       .  S
O2243     Zr3175   2.383   1_545  S
O2243     Zr3181   2.383   1_545  S
O2243      H2248   0.965       .  S
O2261     Zr2273   2.506       .  S
O2261      C2263   1.301       .  A
O2262     Zr2299   2.405   1_554  S
O2262      C2263   1.286       .  A
C2263      C2487   1.485       .  S
O2264     Zr2276   2.359   1_554  S
O2264      C2266   1.264       .  A
O2265     Zr2300   2.560       .  S
O2265      C2266   1.305       .  A
C2266      C2624   1.512   1_554  S
O2267     Zr2276   2.357       .  S
O2267      C2269   1.247       .  A
O2268     Zr2299   2.531       .  S
O2268      C2269   1.299       .  A
C2269      C2764   1.493       .  S
O2270     Zr2273   2.451       .  S
O2270      C2272   1.292       .  A
O2271     Zr2300   2.484       .  S
O2271      C2272   1.300       .  A
C2272      C2403   1.501       .  S
Zr2273     O2274   2.434       .  S
Zr2273     O2275   2.434       .  S
Zr2273     O2279   2.366       .  S
Zr2273     O2280   2.381       .  S
Zr2273     O2303   2.384       .  S
Zr2273     O2305   2.353       .  S
O2274      H2317   0.989       .  S
O2275      H2316   0.989       .  S
O2275      H2320   0.991       .  S
Zr2276     O2277   2.439   1_556  S
Zr2276     O2278   2.430       .  S
Zr2276     O2280   2.366   1_556  S
Zr2276     O2279   2.372   1_556  S
Zr2276     O2304   2.379       .  S
Zr2276     O2306   2.346       .  S
O2277      H2318   0.989       .  S
O2277      H2321   0.989       .  S
O2278      H2311   0.990       .  S
O2279     Zr2299   2.403   1_554  S
O2280     Zr2300   2.393       .  S
O2280      H2307   0.965       .  S
O2281     Zr2293   2.389       .  S
O2281      C2283   1.265       .  A
O2282     Zr2300   2.516       .  S
O2282      C2283   1.289       .  A
C2283      C2753   1.516       .  S
O2284     Zr2296   2.461       .  S
O2284      C2286   1.292       .  A
O2285     Zr2299   2.460       .  S
O2285      C2286   1.296       .  A
C2286      C2389   1.485       .  S
O2287     Zr2296   2.519       .  S
O2287      C2289   1.304       .  A
O2288     Zr2300   2.364   1_556  S
O2288      C2289   1.278       .  A
C2289      C2470   1.481       .  S
O2290     Zr2293   2.389       .  S
O2290      C2292   1.276   1_554  A
O2291     Zr2299   2.526       .  S
O2291      C2292   1.306       .  A
C2292      C2613   1.491   1_556  S
Zr2293     O2294   2.432   1_554  S
Zr2293     O2295   2.434       .  S
Zr2293     O2301   2.373   1_554  S
Zr2293     O2302   2.368   1_554  S
Zr2293     O2305   2.354       .  S
Zr2293     O2303   2.383       .  S
O2294      H2314   0.987       .  S
O2294      H2319   0.989       .  S
O2295      H2315   0.991       .  S
Zr2296     O2297   2.431       .  S
Zr2296     O2298   2.443       .  S
Zr2296     O2302   2.402       .  S
Zr2296     O2301   2.331       .  S
Zr2296     O2306   2.361       .  S
Zr2296     O2304   2.342       .  S
O2297      H2313   0.990       .  S
O2298      H2312   0.989       .  S
O2298      H2322   0.989       .  S
Zr2299     O2302   2.410       .  S
Zr2299     O2304   2.401       .  S
Zr2299     O2305   2.391   1_556  S
Zr2300     O2301   2.431   1_554  S
Zr2300     O2303   2.418       .  S
Zr2300     O2306   2.368   1_554  S
O2301      H2309   0.964       .  S
O2304      H2308   0.962       .  S
O2305      H2310   0.963       .  S
O2323     Zr2335   2.374       .  S
O2323      C2325   1.265       .  A
O2324     Zr2361   2.528       .  S
O2324      C2325   1.302       .  A
C2325      C2655   1.503       .  S
O2326     Zr2338   2.445       .  S
O2326      C2328   1.291       .  A
O2327     Zr2362   2.451       .  S
O2327      C2328   1.291       .  A
C2328      C2386   1.509       .  S
O2329     Zr2338   2.379       .  S
O2329      C2331   1.276       .  A
O2330     Zr2361   2.420       .  S
O2330      C2331   1.293       .  A
C2331      C2543   1.458       .  S
O2332     Zr2335   2.377       .  S
O2332      C2334   1.275       .  A
O2333     Zr2362   2.546       .  S
O2333      C2334   1.310       .  A
C2334      C2428   1.505       .  S
Zr2335     O2336   2.439       .  S
Zr2335     O2337   2.439       .  S
Zr2335     O2341   2.355       .  S
Zr2335     O2342   2.365       .  S
Zr2335     O2365   2.353       .  S
Zr2335     O2367   2.382       .  S
O2336      H2379   0.990       .  S
O2337      H2378   0.990       .  S
O2337      H2382   0.990       .  S
Zr2338     O2339   2.434       .  S
Zr2338     O2340   2.435       .  S
Zr2338     O2342   2.352       .  S
Zr2338     O2341   2.385       .  S
Zr2338     O2366   2.389       .  S
Zr2338     O2368   2.334       .  S
O2339      H2380   0.990       .  S
O2339      H2383   0.990       .  S
O2340      H2373   0.991       .  S
O2341     Zr2361   2.408       .  S
O2342     Zr2362   2.384       .  S
O2342      H2369   0.968       .  S
O2343     Zr2355   2.370       .  S
O2343      C2345   1.275       .  A
O2344     Zr2362   2.409       .  S
O2344      C2345   1.285       .  A
C2345      C2529   1.439       .  S
O2346     Zr2358   2.395       .  S
O2346      C2348   1.280       .  A
O2347     Zr2361   2.517       .  S
O2347      C2348   1.304       .  A
C2348      C2414   1.518       .  S
O2349     Zr2358   2.405       .  S
O2349      C2351   1.269       .  A
O2350     Zr2362   2.517       .  S
O2350      C2351   1.296       .  A
C2351      C2641   1.508       .  S
O2352     Zr2355   2.433       .  S
O2352      C2354   1.288       .  A
O2353     Zr2361   2.488       .  S
O2353      C2354   1.299       .  A
C2354      C2400   1.521       .  S
Zr2355     O2356   2.434       .  S
Zr2355     O2357   2.435       .  S
Zr2355     O2363   2.365       .  S
Zr2355     O2364   2.341       .  S
Zr2355     O2367   2.326       .  S
Zr2355     O2365   2.377       .  S
O2356      H2376   0.990       .  S
O2356      H2381   0.990       .  S
O2357      H2377   0.991       .  S
Zr2358     O2359   2.442       .  S
Zr2358     O2360   2.450       .  S
Zr2358     O2364   2.357       .  S
Zr2358     O2363   2.373       .  S
Zr2358     O2368   2.371       .  S
Zr2358     O2366   2.348       .  S
O2359      H2375   0.990       .  S
O2360      H2374   0.990       .  S
O2360      H2384   0.990       .  S
Zr2361     O2364   2.380       .  S
Zr2361     O2366   2.411       .  S
Zr2361     O2367   2.379       .  S
Zr2362     O2363   2.429       .  S
Zr2362     O2365   2.388       .  S
Zr2362     O2368   2.395       .  S
O2363      H2371   0.967       .  S
O2366      H2370   0.964       .  S
O2367      H2372   0.965       .  S
C2385      C2386   1.411       .  A
C2385      C2390   1.400       .  A
C2385      H2392   1.083       .  S
C2386      C2387   1.424       .  A
C2387      C2388   1.416       .  A
C2387      N2394   1.432       .  S
C2388      C2389   1.404       .  A
C2388      H2393   1.084       .  S
C2389      C2390   1.411       .  A
C2390      N2391   1.440       .  S
N2391      O2395   1.263       .  A
N2391      O2396   1.262       .  A
N2394      O2397   1.261       .  A
N2394      O2398   1.262       .  A
C2399      C2400   1.414       .  A
C2399      C2404   1.400       .  A
C2399      H2406   1.082       .  S
C2400      C2401   1.425       .  A
C2401      C2402   1.428       .  A
C2401      N2408   1.437       .  S
C2402      C2403   1.413       .  A
C2402      H2407   1.083       .  S
C2403      C2404   1.412       .  A
C2404      N2405   1.441       .  S
N2405      O2409   1.263       .  A
N2405      O2410   1.263       .  A
N2408      O2411   1.263       .  A
N2408      O2412   1.263       .  A
C2413      C2414   1.417       .  A
C2413      C2418   1.401       .  A
C2413      H2420   1.084       .  S
C2414      C2415   1.418       .  A
C2415      C2416   1.419       .  A
C2415      N2422   1.432       .  S
C2416      C2417   1.418       .  A
C2416      H2421   1.083       .  S
C2417      C2418   1.406       .  A
C2418      N2419   1.425       .  S
N2419      O2423   1.262       .  A
N2419      O2424   1.262       .  A
N2422      O2425   1.258       .  A
N2422      O2426   1.263       .  A
C2427      C2428   1.405       .  A
C2427      C2432   1.405       .  A
C2427      H2434   1.083       .  S
C2428      C2429   1.426       .  A
C2429      C2430   1.435       .  A
C2429      N2436   1.445       .  S
C2430      C2431   1.415       .  A
C2430      H2435   1.082       .  S
C2431      C2432   1.422       .  A
C2432      N2433   1.449       .  S
N2433      O2437   1.263       .  A
N2433      O2438   1.262       .  A
N2436      O2439   1.262       .  A
N2436      O2440   1.263       .  A
C2441      C3386   1.400   1_545  A
C2441      C2446   1.402       .  A
C2441      H2448   1.084       .  S
C2442      C3385   1.400       .  A
C2442      C2443   1.415       .  A
C2443      C2444   1.403       .  A
C2443      N2450   1.435       .  S
C2444      C2445   1.398       .  A
C2444      H2449   1.084       .  S
C2445      C3390   1.416       .  A
C2446      C3389   1.416   1_545  A
C2446      N2447   1.438       .  S
N2447      O2451   1.263       .  A
N2447      O2452   1.262       .  A
N2450      O2453   1.260       .  A
N2450      O2454   1.263       .  A
C2455      C2456   1.403       .  A
C2455      C2460   1.398       .  A
C2455      H3406   1.083       .  S
C2456      C2457   1.426       .  A
C2457      C2458   1.408       .  A
C2457      N2464   1.432       .  S
C2458      C2459   1.399       .  A
C2458      H2463   1.084       .  S
C2459      C2460   1.417       .  A
C2460      N2461   1.439       .  S
N2461      O3409   1.263       .  A
N2461      O2466   1.262       .  A
H2462      C3399   1.083       .  S
N2464      O2467   1.262       .  A
N2464      O2468   1.262       .  A
O2465      N3405   1.263       .  A
C2469      C2470   1.400       .  A
C2469      C2474   1.408       .  A
C2469      H2476   1.084       .  S
C2470      C2471   1.426       .  A
C2471      C2472   1.393       .  A
C2471      N2478   1.436       .  S
C2472      C2473   1.390       .  A
C2472      H2477   1.085       .  S
C2473      C2474   1.425       .  A
C2474      N2475   1.444       .  S
N2475      O2479   1.263       .  A
N2475      O2480   1.262       .  A
N2478      O2481   1.262   1_556  A
N2478      O2482   1.263       .  A
C2483      C2484   1.414       .  A
C2483      C2488   1.406       .  A
C2483      H2490   1.082       .  S
C2484      C2485   1.420       .  A
C2485      C2486   1.417       .  A
C2485      N2492   1.442       .  S
C2486      C2487   1.409       .  A
C2486      H2491   1.080       .  S
C2487      C2488   1.409       .  A
C2488      N2489   1.444       .  S
N2489      O2493   1.262       .  A
N2489      O2494   1.262       .  A
N2492      O2495   1.260       .  A
N2492      O2496   1.262       .  A
C2497      C2498   1.420       .  A
C2497      C2502   1.411       .  A
C2497      H2504   1.083       .  S
C2498      C2499   1.414       .  A
C2499      C2500   1.402       .  A
C2499      N2506   1.421       .  S
C2500      C2501   1.406       .  A
C2500      H2505   1.085       .  S
C2501      C2502   1.409       .  A
C2502      N2503   1.434       .  S
N2503      O2507   1.262       .  A
N2503      O2508   1.262       .  A
N2506      O2509   1.258       .  A
N2506      O2510   1.263       .  A
C2511      C2512   1.406       .  A
C2511      C2516   1.417       .  A
C2511      H2518   1.082       .  S
C2512      C2513   1.429       .  A
C2513      C2514   1.419       .  A
C2513      N2520   1.439       .  S
C2514      C2515   1.405       .  A
C2514      H2519   1.083       .  S
C2515      C2516   1.428       .  A
C2516      N2517   1.438       .  S
N2517      O2521   1.262       .  A
N2517      O2522   1.263       .  A
N2520      O2523   1.263       .  A
N2520      O2524   1.263       .  A
C2525      C2526   1.405       .  A
C2525      C2530   1.380       .  A
C2525      H2532   1.083       .  S
C2526      C2527   1.404       .  A
C2527      C2528   1.394       .  A
C2527      N2534   1.439       .  S
C2528      C2529   1.406       .  A
C2528      H2533   1.084       .  S
C2529      C2530   1.400       .  A
C2530      N2531   1.435       .  S
N2531      O2535   1.262       .  A
N2531      O2536   1.262       .  A
N2534      O2537   1.262       .  A
N2534      O2538   1.263       .  A
C2539      C2540   1.399       .  A
C2539      C2544   1.399       .  A
C2539      H2546   1.084       .  S
C2540      C2541   1.412       .  A
C2541      C2542   1.367       .  A
C2541      N2548   1.433       .  S
C2542      C2543   1.391       .  A
C2542      H2547   1.077       .  S
C2543      C2544   1.420       .  A
C2544      N2545   1.435       .  S
N2545      O2549   1.263       .  A
N2545      O2550   1.262       .  A
N2548      O2551   1.261       .  A
N2548      O2552   1.263       .  A
C2553      C2554   1.407       .  A
C2553      C2558   1.415       .  A
C2553      H2560   1.084       .  S
C2554      C2555   1.407   1_655  A
C2555      C2556   1.397   1_455  A
C2556      C2557   1.404       .  A
C2557      C2558   1.418       .  A
C2558      N2559   1.443       .  S
N2559      O2563   1.263       .  A
N2559      O2564   1.262       .  A
N2562      O2565   1.263       .  A
N2562      O2566   1.262       .  A
C2567      C2572   1.401       .  A
C2567      H2574   1.083       .  S
C2568      C2569   1.421       .  A
C2569      C2570   1.413       .  A
C2569      N2576   1.434       .  S
C2570      C2571   1.403       .  A
C2570      H2575   1.083       .  S
C2572      N2573   1.440       .  S
N2573      O2577   1.263   1_655  A
N2573      O2578   1.263       .  A
N2576      O2579   1.263       .  A
N2576      O2580   1.262       .  A
C2581      C2582   1.407       .  A
C2581      C2586   1.391       .  A
C2581      H2588   1.070       .  S
C2582      C2583   1.407       .  A
C2583      C2584   1.396       .  A
C2583      N2590   1.430       .  S
C2584      C2585   1.405       .  A
C2584      H2589   1.085       .  S
C2585      C2586   1.397       .  A
C2586      N2587   1.444       .  S
N2587      O2591   1.262       .  A
N2587      O2592   1.262       .  A
N2590      O2593   1.262       .  A
N2590      O2594   1.262       .  A
C2595      C2596   1.396       .  A
C2595      C2600   1.394       .  A
C2595      H2602   1.084       .  S
C2596      C2597   1.408       .  A
C2597      C2598   1.395       .  A
C2597      N2604   1.432       .  S
C2598      C2599   1.405       .  A
C2598      H2603   1.084       .  S
C2599      C2600   1.417       .  A
C2600      N2601   1.436   1_554  S
N2601      O2605   1.262       .  A
N2601      O2606   1.262       .  A
N2604      O2607   1.262       .  A
N2604      O2608   1.261       .  A
C2609      C2610   1.410   1_556  A
C2609      C2614   1.411       .  A
C2609      H2616   1.082       .  S
C2610      C2611   1.412       .  A
C2611      C2612   1.417       .  A
C2611      N2618   1.442       .  S
C2612      C2613   1.414       .  A
C2612      H2617   1.083       .  S
C2613      C2614   1.412   1_554  A
C2614      N2615   1.442       .  S
N2615      O2619   1.263       .  A
N2615      O2620   1.262       .  A
N2618      O2621   1.262       .  A
N2618      O2622   1.263       .  A
C2623      C2624   1.411   1_554  A
C2623      C2628   1.408   1_554  A
C2623      H2630   1.084       .  S
C2624      C2625   1.427       .  A
C2625      C2626   1.419       .  A
C2625      N2632   1.438       .  S
C2626      C2627   1.406       .  A
C2626      H2631   1.083       .  S
C2627      C2628   1.413       .  A
C2628      N2629   1.430   1_556  S
N2629      O2633   1.263       .  A
N2629      O2634   1.259       .  A
N2632      O2635   1.258       .  A
N2632      O2636   1.263       .  A
C2637      C2638   1.414       .  A
C2637      C2642   1.418       .  A
C2637      H2644   1.084       .  S
C2638      C2639   1.414       .  A
C2639      C2640   1.404       .  A
C2639      N2646   1.446       .  S
C2640      C2641   1.409       .  A
C2640      H2645   1.071       .  S
C2641      C2642   1.414       .  A
C2642      N2643   1.437       .  S
N2643      O2647   1.263       .  A
N2643      O2648   1.260       .  A
N2646      O2649   1.262       .  A
N2646      O2650   1.263       .  A
C2651      C2652   1.419       .  A
C2651      C2656   1.417       .  A
C2651      H2658   1.084       .  S
C2652      C2653   1.401       .  A
C2653      C2654   1.395       .  A
C2653      N2660   1.441       .  S
C2654      C2655   1.419       .  A
C2654      H2659   1.079       .  S
C2655      C2656   1.411       .  A
C2656      N2657   1.435       .  S
N2657      O2661   1.262       .  A
N2657      O2662   1.262       .  A
N2660      O2663   1.262       .  A
N2660      O2664   1.263       .  A
C2665      C3610   1.412   1_545  A
C2665      C2670   1.387       .  A
C2665      H2672   1.084       .  S
C2666      C3609   1.418       .  A
C2666      C2667   1.408       .  A
C2667      C2668   1.403       .  A
C2667      N2674   1.437       .  S
C2668      C3613   1.409       .  A
C2668      H2673   1.083       .  S
C2669      C3612   1.406       .  A
C2669      C2670   1.402       .  A
C2670      N2671   1.435       .  S
N2671      O2675   1.262   1_545  A
N2671      O2676   1.262       .  A
N2674      O2677   1.262       .  A
N2674      O3622   1.263       .  A
O2678      N3618   1.263   1_545  A
C2679      C2680   1.394       .  A
C2679      C2684   1.397       .  A
C2679      H2686   1.085       .  S
C2680      C3625   1.415       .  A
C2681      C3624   1.416       .  A
C2681      C2682   1.393       .  A
C2681      N2688   1.426       .  S
C2682      C2683   1.391   1_545  A
C2682      H2687   1.084       .  S
C2683      C3628   1.418       .  A
C2684      C3627   1.418       .  A
C2684      N2685   1.432       .  S
N2685      O2689   1.263       .  A
N2685      O2690   1.260       .  A
N2688      O2691   1.261       .  A
N2688      O2692   1.262       .  A
C2693      C2694   1.414       .  A
C2693      C2698   1.424       .  A
C2693      H2700   1.082       .  S
C2694      C2695   1.415       .  A
C2695      C2696   1.414       .  A
C2695      N2702   1.442       .  S
C2696      C2697   1.412       .  A
C2696      H2701   1.079       .  S
C2697      C2698   1.418       .  A
N2699      O2703   1.263       .  A
N2702      O2705   1.262       .  A
N2702      O2706   1.263       .  A
C2707      C2708   1.405       .  A
C2707      C2712   1.420       .  A
C2707      H2714   1.084       .  S
C2709      C2710   1.422       .  A
C2709      N2716   1.438       .  S
C2710      H2715   1.084       .  S
C2711      C2712   1.430       .  A
C2712      N2713   1.440       .  S
N2713      O2717   1.263       .  A
N2713      O2718   1.263       .  A
N2716      O2719   1.263       .  A
N2716      O2720   1.263       .  A
C2721      C2722   1.405       .  A
C2721      C2726   1.405       .  A
C2721      H2728   1.084       .  S
C2723      C2724   1.396       .  A
C2723      N2730   1.438       .  S
C2724      H2729   1.083       .  S
C2725      C2726   1.418       .  A
C2726      N2727   1.433       .  S
N2727      O2731   1.262       .  A
N2727      O3676   1.262       .  A
N2730      O2733   1.261       .  A
N2730      O3678   1.263       .  A
O2732      N3671   1.262   1_545  A
O2734      N3674   1.263       .  A
C2735      C2736   1.392   1_655  A
C2735      C2740   1.386       .  A
C2735      H2742   1.086       .  S
C2737      C2738   1.400       .  A
C2737      N2744   1.444       .  S
C2738      C2739   1.408       .  A
C2738      H2743   1.083       .  S
C2740      N2741   1.431       .  S
N2741      O2745   1.262       .  A
N2741      O3690   1.262   1_545  A
N2744      O2747   1.263       .  A
N2744      O2748   1.263       .  A
O2746      N3685   1.262       .  A
C2749      C2750   1.409       .  A
C2749      C2754   1.421       .  A
C2749      H2756   1.084       .  S
C2750      C2751   1.424   1_556  A
C2751      C2752   1.411       .  A
C2751      N2758   1.433       .  S
C2752      C2753   1.405       .  A
C2752      H2757   1.084       .  S
C2753      C2754   1.427   1_554  A
C2754      N2755   1.436       .  S
N2755      O2759   1.260       .  A
N2755      O2760   1.263       .  A
N2758      O2761   1.264       .  A
N2758      O2762   1.260       .  A
C2763      C2764   1.395   1_554  A
C2763      C2768   1.404       .  A
C2763      H2770   1.084       .  S
C2764      C2765   1.438       .  A
C2765      C2766   1.397       .  A
C2765      N2772   1.439       .  S
C2766      C2767   1.387   1_556  A
C2766      H2771   1.084       .  S
C2767      C2768   1.430       .  A
C2768      N2769   1.435       .  S
N2769      O2773   1.262       .  A
N2769      O2774   1.262       .  A
N2772      O2775   1.262       .  A
N2772      O2776   1.264       .  A
C2777      C2778   1.416       .  A
C2777      C2782   1.447       .  A
C2777      H2784   1.082       .  S
C2778      C3723   1.428       .  A
C2779      C3722   1.428       .  A
C2779      C2780   1.423       .  A
C2779      N2786   1.441       .  S
C2780      C3725   1.412       .  A
C2780      H2785   1.084       .  S
C2781      C3724   1.412       .  A
C2781      C2782   1.441       .  A
C2782      N2783   1.439       .  S
N2783      O2787   1.262       .  A
N2783      O2788   1.258       .  A
N2786      O2789   1.263       .  A
N2786      O2790   1.263       .  A
C2791      C2792   1.408       .  A
C2791      C2796   1.419       .  A
C2791      H2798   1.080   1_556  S
C2792      C2793   1.433       .  A
C2793      C2794   1.441       .  A
C2793      N2800   1.438       .  S
C2794      C2795   1.416       .  A
C2794      H2799   1.083       .  S
C2795      C2796   1.422       .  A
C2796      N2797   1.440   1_556  S
N2797      O2801   1.263       .  A
N2797      O2802   1.262       .  A
N2800      O3747   1.261       .  A
N2800      O2804   1.263       .  A
O2803      N3744   1.261       .  A
C2805      C2810   1.390   1_554  A
C2805      H2812   1.081       .  S
C2806      C2807   1.411       .  A
C2807      C2808   1.395   1_554  A
C2807      N2814   1.442       .  S
C2808      H2813   1.082       .  S
C2809      C2810   1.405       .  A
C2810      N2811   1.441       .  S
N2811      O2815   1.263       .  A
N2811      O2816   1.262       .  A
N2814      O2817   1.261       .  A
N2814      O2818   1.263       .  A
C2819      C2824   1.386       .  A
C2819      H2826   1.084       .  S
C2820      C2821   1.406   1_556  A
C2821      C2822   1.393       .  A
C2821      N2828   1.442   1_455  S
C2822      C2823   1.407   1_554  A
C2822      H2827   1.082       .  S
C2824      N2825   1.441       .  S
N2825      O2829   1.263       .  A
N2825      O2830   1.263       .  A
N2828      O2831   1.262       .  A
N2828      O2832   1.263       .  A
O2833     Zr2845   2.365   1_554  S
O2833      C2835   1.260       .  A
O2834      C2835   1.305       .  A
C2835      C3711   1.479       .  S
O2836     Zr2848   2.428       .  S
O2837     Zr2872   2.431       .  S
O2837      C2838   1.289       .  A
O2839     Zr2848   2.435       .  S
O2840     Zr2871   2.373   1_556  S
O2840      C2841   1.259       .  A
C2841      C3767   1.441       .  S
O2842     Zr2845   2.402       .  S
O2843     Zr2872   2.597       .  S
O2843      C2844   1.319       .  A
C2844      C3736   1.536       .  S
Zr2845     O2846   2.436       .  S
Zr2845     O2847   2.436   1_556  S
Zr2845     O2851   2.361       .  S
Zr2845     O2852   2.376       .  S
Zr2845     O2877   2.400   1_556  S
O2846      H2889   0.990       .  S
O2847      H2888   0.989       .  S
O2847      H2892   0.989       .  S
Zr2848     O2849   2.435       .  S
Zr2848     O2852   2.378       .  S
Zr2848     O2851   2.360       .  S
O2849      H2890   0.990       .  S
O2849      H2893   0.991       .  S
O2850      H2883   0.990       .  S
O2852      H2879   0.965       .  S
O2853     Zr2865   2.449       .  S
O2854     Zr2872   2.332       .  S
O2854      C2855   1.276   1_556  A
C2855      C3750   1.437       .  S
O2856     Zr2868   2.413   1_545  S
O2857     Zr2871   2.607   1_655  S
O2857      C2858   1.321       .  A
C2858      C3722   1.550       .  S
O2859     Zr2868   2.389   1_556  S
O2859      C2861   1.266       .  A
O2860      C2861   1.296       .  A
C2861      C3694   1.514       .  S
O2862     Zr2865   2.433   1_455  S
O2863     Zr2871   2.390       .  S
O2863      C2864   1.283       .  A
C2864      C3680   1.442       .  S
Zr2865     O2866   2.434       .  S
Zr2865     O2873   2.338       .  S
Zr2865     O2874   2.382       .  S
O2866      H2886   0.989       .  S
O2866      H2891   0.991       .  S
O2867      H2887   0.989       .  S
Zr2868     O2869   2.436       .  S
Zr2868     O2870   2.440   1_554  S
Zr2868     O2874   2.353       .  S
Zr2868     O2873   2.378       .  S
Zr2868     O2878   2.394   1_554  S
O2869      H2885   0.989       .  S
O2870      H2884   0.990       .  S
O2870      H2894   0.990   1_556  S
Zr2871     O2876   2.395   1_454  S
Zr2872     O2875   2.373   1_556  S
O2873      H2881   0.967       .  S
O2876      H2880   0.964       .  S
O2877      H2882   0.966       .  S
O2895     Zr2907   2.400       .  S
O2896      C2897   1.304       .  A
O2898     Zr2910   2.411       .  S
O2898      C2900   1.262       .  A
O2899     Zr2934   2.336       .  S
O2899      C2900   1.248       .  A
C2900      C3613   1.452       .  S
O2901     Zr2910   2.423       .  S
O2902     Zr2933   2.390       .  S
O2902      C2903   1.283       .  A
C2903      C3683   1.474       .  S
O2904     Zr2907   2.369       .  S
O2904      C2906   1.273       .  A
O2905      C2906   1.302       .  A
C2906      C3582   1.477       .  S
Zr2907     O2908   2.437       .  S
Zr2907     O2909   2.436       .  S
Zr2907     O2913   2.369       .  S
Zr2907     O2914   2.336       .  S
Zr2907     O2937   2.371       .  S
O2908      H2951   0.990       .  S
O2909      H2950   0.989       .  S
O2909      H2954   0.989       .  S
Zr2910     O2912   2.436       .  S
Zr2910     O2940   2.400       .  S
O2911      H2952   0.989       .  S
O2911      H2955   0.991       .  S
O2912      H2945   0.990       .  S
O2914      H2941   0.969       .  S
O2915      C2917   1.289       .  A
O2916      C2917   1.290       .  A
C2917      C3669   1.496       .  S
O2918     Zr2930   2.347       .  S
O2918      C2920   1.271       .  A
O2919     Zr2933   2.514       .  S
O2919      C2920   1.304       .  A
C2920      C3596   1.478       .  S
O2921      C2923   1.273   1_455  A
O2922     Zr2934   2.527       .  S
O2922      C2923   1.305       .  A
C2923      C3652   1.515       .  S
O2924     Zr2927   2.494       .  S
O2924      C2926   1.299       .  A
O2925     Zr2933   2.355       .  S
O2925      C2926   1.276       .  A
C2926      C3627   1.468       .  S
Zr2927     O2928   2.434       .  S
Zr2927     O2936   2.354       .  S
O2928      H2948   0.989       .  S
O2928      H2953   0.991       .  S
Zr2930     O2931   2.434       .  S
Zr2930     O2932   2.435       .  S
Zr2930     O2936   2.367       .  S
Zr2930     O2938   2.375       .  S
O2931      H2947   0.990       .  S
O2932      H2956   0.990       .  S
Zr2933     O2936   2.389       .  S
Zr2933     O2938   2.396       .  S
Zr2934     O2935   2.392   1_655  S
Zr2934     O2940   2.387       .  S
O2935      H2943   0.966       .  S
O2938      H2942   0.967       .  S
O2939      H2944   0.960       .  S
O2957     Zr2969   2.394       .  S
O2957      C2959   1.273       .  A
O2958      C2959   1.300       .  A
C2959      C3571   1.497       .  S
O2960     Zr2972   2.490       .  S
O2960      C2962   1.296       .  A
O2961     Zr2996   2.416       .  S
O2961      C2962   1.289       .  A
C2962      C3512   1.499       .  S
O2963      C2965   1.288   1_454  A
O2964     Zr2995   2.344       .  S
O2964      C2965   1.266       .  A
C2965      C3764   1.451   1_655  S
O2966     Zr2969   2.387   1_554  S
O2966      C2968   1.273       .  A
O2967     Zr2996   2.448       .  S
O2967      C2968   1.289       .  A
C2968      C3540   1.449       .  S
Zr2969     O2970   2.434   1_556  S
Zr2969     O2971   2.435       .  S
Zr2969     O2975   2.359   1_556  S
Zr2969     O2976   2.371   1_556  S
Zr2969     O2999   2.354       .  S
Zr2969     O3001   2.370       .  S
O2970      H3013   0.990       .  S
O2971      H3012   0.990       .  S
O2971      H3016   0.991       .  S
Zr2972     O2973   2.436       .  S
Zr2972     O2976   2.351       .  S
Zr2972     O2975   2.391       .  S
O2973      H3014   0.990       .  S
O2973      H3017   0.989       .  S
O2974      H3007   0.989       .  S
O2976     Zr2996   2.389       .  S
O2976      H3003   0.963       .  S
O2977     Zr2989   2.434       .  S
O2977      C2979   1.285       .  A
O2978     Zr2996   2.339       .  S
C2979      C3753   1.427       .  S
O2980     Zr2992   2.421       .  S
O2980      C2982   1.271       .  A
O2981     Zr2995   2.424       .  S
O2981      C2982   1.272       .  A
C2982      C3526   1.471       .  S
O2983     Zr2992   2.392   1_554  S
O2983      C2985   1.275       .  A
O2984      C2985   1.302       .  A
C2985      C3554   1.492       .  S
O2986     Zr2989   2.426       .  S
O2986      C2988   1.285       .  A
O2987     Zr2995   2.444       .  S
O2987      C2988   1.291       .  A
C2988      C3498   1.472       .  S
Zr2989     O2990   2.437       .  S
Zr2989     O2997   2.376       .  S
Zr2989     O2998   2.337       .  S
O2990      H3010   0.989       .  S
O2990      H3015   0.991       .  S
O2991      H3011   0.990       .  S
Zr2992     O2993   2.433       .  S
Zr2992     O2994   2.440   1_556  S
Zr2992     O2998   2.356       .  S
Zr2992     O2997   2.348       .  S
Zr2992     O3002   2.377   1_556  S
Zr2992     O3000   2.357       .  S
O2993      H3009   0.990       .  S
O2994      H3008   0.989       .  S
O2994      H3018   0.989       .  S
Zr2995     O2998   2.384       .  S
Zr2995     O3000   2.446       .  S
Zr2996     O2999   2.395   1_554  S
O2997      H3005   0.964       .  S
O3000      H3004   0.967       .  S
O3001      H3006   0.966       .  S
O3019     Zr3031   2.448       .  S
O3019      C3021   1.289       .  A
O3020     Zr3057   2.327       .  S
O3020      C3021   1.273       .  A
C3021      C3484   1.447       .  S
O3022     Zr3034   2.370       .  S
O3022      C3024   1.255       .  A
O3023     Zr3058   2.547       .  S
O3023      C3024   1.297       .  A
C3024      C3442   1.510       .  S
O3025     Zr3034   2.375       .  S
O3026     Zr3057   2.559       .  S
O3026      C3027   1.305       .  A
O3028      C3030   1.283       .  A
O3029     Zr3058   2.463       .  S
O3029      C3030   1.296       .  A
C3030      C3501   1.473       .  S
Zr3031     O3032   2.435       .  S
Zr3031     O3033   2.435       .  S
Zr3031     O3037   2.361       .  S
Zr3031     O3063   2.338       .  S
O3032      H3075   0.990       .  S
O3033      H3074   0.990       .  S
O3033      H3078   0.990       .  S
Zr3034     O3035   2.436       .  S
Zr3034     O3036   2.435       .  S
Zr3034     O3038   2.390       .  S
Zr3034     O3062   2.375       .  S
Zr3034     O3064   2.367       .  S
O3035      H3076   0.990       .  S
O3035      H3079   0.990       .  S
O3036      H3069   0.990       .  S
O3037     Zr3057   2.382       .  S
O3038     Zr3058   2.406       .  S
O3038      H3065   0.967       .  S
O3039      C3041   1.272       .  A
O3040     Zr3058   2.532       .  S
O3040      C3041   1.301       .  A
C3041      C3638   1.504       .  S
O3042     Zr3054   2.416       .  S
O3043     Zr3057   2.463       .  S
O3043      C3044   1.296       .  A
C3044      C3515   1.491       .  S
O3045     Zr3054   2.460       .  S
O3045      C3047   1.291       .  A
O3046     Zr3058   2.325       .  S
O3046      C3047   1.275       .  A
C3047      C3470   1.442       .  S
O3048     Zr3051   2.385       .  S
O3048      C3050   1.265       .  A
O3049     Zr3057   2.521       .  S
O3049      C3050   1.296       .  A
C3050      C3456   1.519       .  S
Zr3051     O3052   2.436       .  S
Zr3051     O3053   2.435       .  S
Zr3051     O3060   2.386       .  S
Zr3051     O3063   2.359       .  S
O3052      H3077   0.989       .  S
O3053      H3073   0.990       .  S
Zr3054     O3055   2.434       .  S
Zr3054     O3056   2.436       .  S
Zr3054     O3059   2.340       .  S
Zr3054     O3064   2.357       .  S
Zr3054     O3062   2.370       .  S
O3055      H3071   0.990       .  S
O3056      H3070   0.990       .  S
O3056      H3080   0.989       .  S
Zr3057     O3060   2.402       .  S
Zr3057     O3063   2.420       .  S
Zr3058     O3059   2.401       .  S
Zr3058     O3061   2.392       .  S
Zr3058     O3064   2.397       .  S
O3059      H3067   0.963       .  S
O3062      H3066   0.965       .  S
O3063      H3068   0.965       .  S
O3081     Zr3093   2.427       .  S
O3081      C3083   1.285       .  A
O3082     Zr3119   2.398       .  S
O3082      C3083   1.281   1_556  A
C3083      C3543   1.469       .  S
O3084     Zr3096   2.408   1_554  S
O3084      C3086   1.283       .  A
O3085     Zr3120   2.496       .  S
O3085      C3086   1.300       .  A
C3086      C3428   1.503       .  S
O3087     Zr3096   2.454       .  S
O3088     Zr3119   2.535       .  S
O3088      C3089   1.307       .  A
C3089      C3739   1.534       .  S
O3090     Zr3093   2.413   1_545  S
O3091     Zr3120   2.465       .  S
O3091      C3092   1.295       .  A
C3092      C3403   1.479       .  S
Zr3093     O3094   2.433       .  S
Zr3093     O3095   2.434       .  S
Zr3093     O3099   2.363       .  S
Zr3093     O3123   2.384       .  S
Zr3093     O3125   2.362       .  S
O3094      H3137   0.991       .  S
O3095      H3136   0.991       .  S
O3095      H3140   0.990       .  S
Zr3096     O3097   2.438   1_556  S
Zr3096     O3098   2.434       .  S
Zr3096     O3100   2.374   1_556  S
Zr3096     O3124   2.361       .  S
Zr3096     O3126   2.380       .  S
O3097      H3138   0.990       .  S
O3097      H3141   0.990       .  S
O3098      H3131   0.990       .  S
O3099     Zr3119   2.366   1_554  S
O3100     Zr3120   2.404       .  S
O3100      H3127   0.961       .  S
O3101      C3103   1.292       .  A
O3102     Zr3120   2.555       .  S
O3102      C3103   1.311       .  A
C3103      C3725   1.559       .  S
O3104     Zr3116   2.438       .  S
O3105     Zr3119   2.425       .  S
O3105      C3106   1.286       .  A
C3106      C3386   1.472       .  S
O3107     Zr3116   2.374       .  S
O3107      C3109   1.275       .  A
O3108     Zr3120   2.434   1_556  S
O3108      C3109   1.291       .  A
C3109      C3529   1.438       .  S
O3110     Zr3113   2.390       .  S
O3110      C3112   1.278       .  A
O3111     Zr3119   2.459       .  S
O3111      C3112   1.296       .  A
C3112      C3417   1.470       .  S
Zr3113     O3114   2.441       .  S
Zr3113     O3115   2.434   1_556  S
Zr3113     O3122   2.384       .  S
Zr3113     O3125   2.391   1_556  S
Zr3113     O3123   2.364   1_556  S
O3114      H3139   0.990       .  S
O3115      H3135   0.990       .  S
Zr3116     O3117   2.434       .  S
Zr3116     O3118   2.433       .  S
Zr3116     O3121   2.384       .  S
Zr3116     O3126   2.381       .  S
Zr3116     O3124   2.364       .  S
O3117      H3133   0.991       .  S
O3118      H3132   0.990       .  S
O3118      H3142   0.990       .  S
Zr3119     O3122   2.386       .  S
Zr3119     O3125   2.417   1_556  S
Zr3120     O3121   2.393   1_554  S
Zr3120     O3126   2.422   1_554  S
O3121      H3129   0.964       .  S
O3124      H3128   0.968       .  S
O3125      H3130   0.968       .  S
O3143     Zr3155   2.364       .  S
O3143      C3145   1.270       .  A
O3144      C3145   1.308       .  A
C3145      C3375   1.499       .  S
O3146      C3148   1.302       .  A
O3147      C3148   1.281       .  A
C3148      C3400   1.496       .  S
O3149     Zr3158   2.498       .  S
O3149      C3151   1.300       .  A
O3150     Zr3181   2.341       .  S
O3150      C3151   1.274   1_565  A
C3151      C3624   1.461       .  S
O3152     Zr3155   2.371       .  S
O3152      C3154   1.255       .  A
O3153      C3154   1.289       .  A
C3154      C3445   1.492       .  S
Zr3155     O3156   2.432       .  S
Zr3155     O3157   2.434       .  S
Zr3155     O3161   2.361       .  S
Zr3155     O3162   2.381       .  S
Zr3155     O3185   2.353       .  S
Zr3155     O3187   2.360       .  S
O3156      H3199   0.990       .  S
O3157      H3198   0.989       .  S
O3157      H3202   0.990       .  S
Zr3158     O3160   2.435   1_545  S
Zr3158     O3186   2.351   1_545  S
Zr3158     O3188   2.365   1_545  S
O3159      H3200   0.990       .  S
O3159      H3203   0.990       .  S
O3160      H3193   0.990       .  S
O3162      H3189   0.967       .  S
O3163     Zr3175   2.453       .  S
O3163      C3165   1.283   1_565  A
O3164     Zr3182   2.369       .  S
O3164      C3165   1.266       .  A
C3165      C3610   1.462   1_545  S
O3166     Zr3178   2.389       .  S
O3166      C3168   1.265       .  A
O3167     Zr3181   2.524       .  S
O3167      C3168   1.297       .  A
C3168      C3459   1.514       .  S
O3169     Zr3178   2.417       .  S
O3169      C3171   1.275       .  A
O3170     Zr3182   2.493   1_565  S
O3170      C3171   1.297       .  A
C3171      C3361   1.507       .  S
O3172     Zr3175   2.454       .  S
O3172      C3174   1.292       .  A
O3173     Zr3181   2.412       .  S
O3173      C3174   1.286       .  A
C3174      C3389   1.471       .  S
Zr3175     O3176   2.434       .  S
Zr3175     O3183   2.393       .  S
Zr3175     O3184   2.363       .  S
O3176      H3196   0.990       .  S
O3176      H3201   0.991       .  S
O3177      H3197   0.990       .  S
Zr3178     O3179   2.436       .  S
Zr3178     O3180   2.433       .  S
Zr3178     O3184   2.389       .  S
Zr3178     O3183   2.356       .  S
Zr3178     O3188   2.358       .  S
Zr3178     O3186   2.391       .  S
O3179      H3195   0.990       .  S
O3180      H3194   0.990       .  S
O3180      H3204   0.990       .  S
Zr3181     O3184   2.403       .  S
Zr3181     O3186   2.422       .  S
Zr3182     O3183   2.408   1_545  S
Zr3182     O3188   2.384   1_545  S
O3183      H3191   0.965       .  S
O3186      H3190   0.966       .  S
O3187      H3192   0.965       .  S
O3205     Zr3217   2.507       .  S
O3205      C3207   1.301       .  A
O3206     Zr3243   2.404   1_554  S
O3206      C3207   1.285       .  A
C3207      C3431   1.484       .  S
O3208     Zr3220   2.359   1_554  S
O3208      C3210   1.264       .  A
O3209     Zr3244   2.561       .  S
O3209      C3210   1.305       .  A
C3210      C3568   1.512   1_554  S
O3211     Zr3220   2.357       .  S
O3211      C3213   1.247       .  A
O3212     Zr3243   2.531       .  S
O3212      C3213   1.299       .  A
C3213      C3708   1.493       .  S
O3214     Zr3217   2.452       .  S
O3214      C3216   1.292       .  A
O3215     Zr3244   2.485       .  S
O3215      C3216   1.300       .  A
C3216      C3347   1.502       .  S
Zr3217     O3218   2.434       .  S
Zr3217     O3219   2.434       .  S
Zr3217     O3223   2.366       .  S
Zr3217     O3224   2.381       .  S
Zr3217     O3247   2.384       .  S
Zr3217     O3249   2.353       .  S
O3218      H3261   0.989       .  S
O3219      H3260   0.989       .  S
O3219      H3264   0.991       .  S
Zr3220     O3221   2.439   1_556  S
Zr3220     O3222   2.430       .  S
Zr3220     O3224   2.366   1_556  S
Zr3220     O3223   2.372   1_556  S
Zr3220     O3248   2.379       .  S
Zr3220     O3250   2.346       .  S
O3221      H3262   0.989       .  S
O3221      H3265   0.989       .  S
O3222      H3255   0.990       .  S
O3223     Zr3243   2.403   1_554  S
O3224     Zr3244   2.393       .  S
O3224      H3251   0.965       .  S
O3225     Zr3237   2.389       .  S
O3225      C3227   1.265       .  A
O3226     Zr3244   2.517       .  S
O3226      C3227   1.289       .  A
C3227      C3697   1.516       .  S
O3228     Zr3240   2.461       .  S
O3228      C3230   1.292       .  A
O3229     Zr3243   2.459       .  S
O3229      C3230   1.295       .  A
C3230      C3333   1.485       .  S
O3231     Zr3240   2.520       .  S
O3231      C3233   1.304       .  A
O3232     Zr3244   2.364   1_556  S
O3232      C3233   1.278       .  A
C3233      C3414   1.482       .  S
O3234     Zr3237   2.389       .  S
O3234      C3236   1.276   1_554  A
O3235     Zr3243   2.526       .  S
O3235      C3236   1.306       .  A
C3236      C3557   1.490   1_556  S
Zr3237     O3238   2.432   1_554  S
Zr3237     O3239   2.434       .  S
Zr3237     O3245   2.373   1_554  S
Zr3237     O3246   2.368   1_554  S
Zr3237     O3249   2.354       .  S
Zr3237     O3247   2.384       .  S
O3238      H3258   0.987       .  S
O3238      H3263   0.989       .  S
O3239      H3259   0.991       .  S
Zr3240     O3241   2.431       .  S
Zr3240     O3242   2.443       .  S
Zr3240     O3246   2.402       .  S
Zr3240     O3245   2.331       .  S
Zr3240     O3250   2.362       .  S
Zr3240     O3248   2.342       .  S
O3241      H3257   0.990       .  S
O3242      H3256   0.989       .  S
O3242      H3266   0.989       .  S
Zr3243     O3246   2.410       .  S
Zr3243     O3248   2.401       .  S
Zr3243     O3249   2.391   1_556  S
Zr3244     O3245   2.431   1_554  S
Zr3244     O3247   2.418       .  S
Zr3244     O3250   2.368   1_554  S
O3245      H3253   0.964       .  S
O3248      H3252   0.962       .  S
O3249      H3254   0.963       .  S
O3267     Zr3279   2.375       .  S
O3267      C3269   1.266       .  A
O3268     Zr3305   2.534       .  S
O3268      C3269   1.303       .  A
C3269      C3599   1.507       .  S
O3270     Zr3282   2.443       .  S
O3270      C3272   1.290       .  A
O3271     Zr3306   2.451       .  S
O3271      C3272   1.291       .  A
C3272      C3330   1.508       .  S
O3273     Zr3282   2.382       .  S
O3273      C3275   1.276       .  A
O3274     Zr3305   2.416       .  S
O3274      C3275   1.292       .  A
C3275      C3487   1.456       .  S
O3276     Zr3279   2.378       .  S
O3276      C3278   1.276       .  A
O3277     Zr3306   2.538       .  S
O3277      C3278   1.308       .  A
C3278      C3372   1.503       .  S
Zr3279     O3280   2.438       .  S
Zr3279     O3281   2.438       .  S
Zr3279     O3285   2.354       .  S
Zr3279     O3286   2.364       .  S
Zr3279     O3309   2.353       .  S
Zr3279     O3311   2.380       .  S
O3280      H3323   0.990       .  S
O3281      H3322   0.990       .  S
O3281      H3326   0.990       .  S
Zr3282     O3283   2.434       .  S
Zr3282     O3284   2.435       .  S
Zr3282     O3286   2.353       .  S
Zr3282     O3285   2.384       .  S
Zr3282     O3310   2.385       .  S
Zr3282     O3312   2.335       .  S
O3283      H3324   0.990       .  S
O3283      H3327   0.990       .  S
O3284      H3317   0.991       .  S
O3285     Zr3305   2.409       .  S
O3286     Zr3306   2.386       .  S
O3286      H3313   0.968       .  S
O3287     Zr3299   2.370       .  S
O3287      C3289   1.275       .  A
O3288     Zr3306   2.410       .  S
O3288      C3289   1.286       .  A
C3289      C3473   1.440       .  S
O3290     Zr3302   2.383       .  S
O3290      C3292   1.277       .  A
O3291     Zr3305   2.528       .  S
O3291      C3292   1.306       .  A
C3292      C3358   1.517       .  S
O3293     Zr3302   2.407       .  S
O3293      C3295   1.269       .  A
O3294     Zr3306   2.511       .  S
O3294      C3295   1.294       .  A
C3295      C3585   1.506       .  S
O3296     Zr3299   2.434       .  S
O3296      C3298   1.288       .  A
O3297     Zr3305   2.489       .  S
O3297      C3298   1.299       .  A
C3298      C3344   1.522       .  S
Zr3299     O3300   2.434       .  S
Zr3299     O3301   2.435       .  S
Zr3299     O3307   2.368       .  S
Zr3299     O3308   2.342       .  S
Zr3299     O3311   2.328       .  S
Zr3299     O3309   2.378       .  S
O3300      H3320   0.991       .  S
O3300      H3325   0.990       .  S
O3301      H3321   0.991       .  S
Zr3302     O3303   2.444       .  S
Zr3302     O3304   2.455       .  S
Zr3302     O3308   2.360       .  S
Zr3302     O3307   2.371       .  S
Zr3302     O3312   2.367       .  S
Zr3302     O3310   2.346       .  S
O3303      H3319   0.991       .  S
O3304      H3318   0.990       .  S
O3304      H3328   0.990       .  S
Zr3305     O3308   2.378       .  S
Zr3305     O3310   2.410       .  S
Zr3305     O3311   2.378       .  S
Zr3306     O3307   2.428       .  S
Zr3306     O3309   2.389       .  S
Zr3306     O3312   2.396       .  S
O3307      H3315   0.967       .  S
O3310      H3314   0.964       .  S
O3311      H3316   0.965       .  S
C3329      C3330   1.411       .  A
C3329      C3334   1.399       .  A
C3329      H3336   1.083       .  S
C3330      C3331   1.424       .  A
C3331      C3332   1.416       .  A
C3331      N3338   1.432       .  S
C3332      C3333   1.404       .  A
C3332      H3337   1.084       .  S
C3333      C3334   1.411       .  A
C3334      N3335   1.439       .  S
N3335      O3339   1.263       .  A
N3335      O3340   1.262       .  A
N3338      O3341   1.260       .  A
N3338      O3342   1.262       .  A
C3343      C3344   1.414       .  A
C3343      C3348   1.401       .  A
C3343      H3350   1.082       .  S
C3344      C3345   1.425       .  A
C3345      C3346   1.429       .  A
C3345      N3352   1.437       .  S
C3346      C3347   1.413       .  A
C3346      H3351   1.083       .  S
C3347      C3348   1.412       .  A
C3348      N3349   1.441       .  S
N3349      O3353   1.263       .  A
N3349      O3354   1.263       .  A
N3352      O3355   1.263       .  A
N3352      O3356   1.263       .  A
C3357      C3358   1.421       .  A
C3357      C3362   1.400       .  A
C3357      H3364   1.084       .  S
C3358      C3359   1.417       .  A
C3359      C3360   1.420       .  A
C3359      N3366   1.434       .  S
C3360      C3361   1.418       .  A
C3360      H3365   1.083       .  S
C3361      C3362   1.403       .  A
C3362      N3363   1.427       .  S
N3363      O3367   1.262       .  A
N3363      O3368   1.261       .  A
N3366      O3369   1.259       .  A
N3366      O3370   1.263       .  A
C3371      C3372   1.404       .  A
C3371      C3376   1.402       .  A
C3371      H3378   1.083       .  S
C3372      C3373   1.426       .  A
C3373      C3374   1.434       .  A
C3373      N3380   1.445       .  S
C3374      C3375   1.415       .  A
C3374      H3379   1.082       .  S
C3375      C3376   1.421       .  A
C3376      N3377   1.449       .  S
N3377      O3381   1.263       .  A
N3377      O3382   1.262       .  A
N3380      O3383   1.262       .  A
N3380      O3384   1.263       .  A
C3385      C3390   1.401       .  A
C3385      H3392   1.084       .  S
C3386      C3387   1.415       .  A
C3387      C3388   1.402       .  A
C3387      N3394   1.435       .  S
C3388      C3389   1.398       .  A
C3388      H3393   1.084       .  S
C3390      N3391   1.438       .  S
N3391      O3395   1.263       .  A
N3391      O3396   1.262       .  A
N3394      O3397   1.260       .  A
N3394      O3398   1.263       .  A
C3399      C3400   1.402       .  A
C3399      C3404   1.399       .  A
C3400      C3401   1.427       .  A
C3401      C3402   1.406       .  A
C3401      N3408   1.432       .  S
C3402      C3403   1.398       .  A
C3402      H3407   1.084       .  S
C3403      C3404   1.418       .  A
C3404      N3405   1.439       .  S
N3405      O3410   1.262       .  A
N3408      O3411   1.262       .  A
N3408      O3412   1.262       .  A
C3413      C3414   1.400       .  A
C3413      C3418   1.409       .  A
C3413      H3420   1.084       .  S
C3414      C3415   1.426       .  A
C3415      C3416   1.393       .  A
C3415      N3422   1.435       .  S
C3416      C3417   1.390       .  A
C3416      H3421   1.085       .  S
C3417      C3418   1.425       .  A
C3418      N3419   1.444       .  S
N3419      O3423   1.263       .  A
N3419      O3424   1.262       .  A
N3422      O3425   1.262   1_556  A
N3422      O3426   1.263       .  A
C3427      C3428   1.414       .  A
C3427      C3432   1.406       .  A
C3427      H3434   1.082       .  S
C3428      C3429   1.420       .  A
C3429      C3430   1.417       .  A
C3429      N3436   1.443       .  S
C3430      C3431   1.409       .  A
C3430      H3435   1.080       .  S
C3431      C3432   1.409       .  A
C3432      N3433   1.444       .  S
N3433      O3437   1.262       .  A
N3433      O3438   1.262       .  A
N3436      O3439   1.260       .  A
N3436      O3440   1.262       .  A
C3441      C3442   1.421       .  A
C3441      C3446   1.410       .  A
C3441      H3448   1.084       .  S
C3442      C3443   1.414       .  A
C3443      C3444   1.402       .  A
C3443      N3450   1.422       .  S
C3444      C3445   1.407       .  A
C3444      H3449   1.085       .  S
C3445      C3446   1.408       .  A
C3446      N3447   1.430       .  S
N3447      O3451   1.262       .  A
N3447      O3452   1.260       .  A
N3450      O3453   1.258       .  A
N3450      O3454   1.263       .  A
C3455      C3456   1.406       .  A
C3455      C3460   1.417       .  A
C3455      H3462   1.082       .  S
C3456      C3457   1.429       .  A
C3457      C3458   1.419       .  A
C3457      N3464   1.439       .  S
C3458      C3459   1.405       .  A
C3458      H3463   1.083       .  S
C3459      C3460   1.428       .  A
C3460      N3461   1.438       .  S
N3461      O3465   1.262       .  A
N3461      O3466   1.263       .  A
N3464      O3467   1.263       .  A
N3464      O3468   1.263       .  A
C3469      C3470   1.405       .  A
C3469      C3474   1.380       .  A
C3469      H3476   1.083       .  S
C3470      C3471   1.405       .  A
C3471      C3472   1.395       .  A
C3471      N3478   1.439       .  S
C3472      C3473   1.406       .  A
C3472      H3477   1.084       .  S
C3473      C3474   1.400       .  A
C3474      N3475   1.434       .  S
N3475      O3479   1.262       .  A
N3475      O3480   1.262       .  A
N3478      O3481   1.262       .  A
N3478      O3482   1.263       .  A
C3483      C3484   1.398       .  A
C3483      C3488   1.398       .  A
C3483      H3490   1.084       .  S
C3484      C3485   1.413       .  A
C3485      C3486   1.367       .  A
C3485      N3492   1.433       .  S
C3486      C3487   1.392       .  A
C3486      H3491   1.078       .  S
C3487      C3488   1.420       .  A
C3488      N3489   1.435       .  S
N3489      O3493   1.263       .  A
N3489      O3494   1.262       .  A
N3492      O3495   1.261       .  A
N3492      O3496   1.263       .  A
C3497      C3498   1.407       .  A
C3497      C3502   1.415       .  A
C3497      H3504   1.084       .  S
C3498      C3499   1.407   1_655  A
C3499      C3500   1.397   1_455  A
C3500      C3501   1.404       .  A
C3501      C3502   1.418       .  A
C3502      N3503   1.443       .  S
N3503      O3507   1.263       .  A
N3503      O3508   1.262       .  A
N3506      O3509   1.263       .  A
N3506      O3510   1.262       .  A
C3511      C3516   1.401       .  A
C3511      H3518   1.083       .  S
C3512      C3513   1.421       .  A
C3513      C3514   1.412       .  A
C3513      N3520   1.434       .  S
C3514      C3515   1.403       .  A
C3514      H3519   1.083       .  S
C3516      N3517   1.440       .  S
N3517      O3521   1.263   1_655  A
N3517      O3522   1.263       .  A
N3520      O3523   1.263       .  A
N3520      O3524   1.262       .  A
C3525      C3526   1.407       .  A
C3525      C3530   1.391       .  A
C3525      H3532   1.070       .  S
C3526      C3527   1.407       .  A
C3527      C3528   1.395       .  A
C3527      N3534   1.430       .  S
C3528      C3529   1.405       .  A
C3528      H3533   1.085       .  S
C3529      C3530   1.397       .  A
C3530      N3531   1.444       .  S
N3531      O3535   1.262       .  A
N3531      O3536   1.262       .  A
N3534      O3537   1.262       .  A
N3534      O3538   1.262       .  A
C3539      C3540   1.396       .  A
C3539      C3544   1.394       .  A
C3539      H3546   1.084       .  S
C3540      C3541   1.409       .  A
C3541      C3542   1.396       .  A
C3541      N3548   1.432       .  S
C3542      C3543   1.405       .  A
C3542      H3547   1.084       .  S
C3543      C3544   1.417       .  A
C3544      N3545   1.436   1_554  S
N3545      O3549   1.262       .  A
N3545      O3550   1.262       .  A
N3548      O3551   1.262       .  A
N3548      O3552   1.261       .  A
C3553      C3554   1.410   1_556  A
C3553      C3558   1.411       .  A
C3553      H3560   1.082       .  S
C3554      C3555   1.412       .  A
C3555      C3556   1.417       .  A
C3555      N3562   1.442       .  S
C3556      C3557   1.414       .  A
C3556      H3561   1.083       .  S
C3557      C3558   1.412   1_554  A
C3558      N3559   1.442       .  S
N3559      O3563   1.263       .  A
N3559      O3564   1.262       .  A
N3562      O3565   1.262       .  A
N3562      O3566   1.263       .  A
C3567      C3568   1.411   1_554  A
C3567      C3572   1.408   1_554  A
C3567      H3574   1.084       .  S
C3568      C3569   1.427       .  A
C3569      C3570   1.419       .  A
C3569      N3576   1.438       .  S
C3570      C3571   1.406       .  A
C3570      H3575   1.083       .  S
C3571      C3572   1.413       .  A
C3572      N3573   1.430   1_556  S
N3573      O3577   1.263       .  A
N3573      O3578   1.259       .  A
N3576      O3579   1.258       .  A
N3576      O3580   1.263       .  A
C3581      C3582   1.414       .  A
C3581      C3586   1.419       .  A
C3581      H3588   1.084       .  S
C3582      C3583   1.413       .  A
C3583      C3584   1.402       .  A
C3583      N3590   1.445       .  S
C3584      C3585   1.406       .  A
C3584      H3589   1.069       .  S
C3585      C3586   1.414       .  A
C3586      N3587   1.437       .  S
N3587      O3591   1.263       .  A
N3587      O3592   1.260       .  A
N3590      O3593   1.261       .  A
N3590      O3594   1.262       .  A
C3595      C3596   1.420       .  A
C3595      C3600   1.419       .  A
C3595      H3602   1.084       .  S
C3596      C3597   1.403       .  A
C3597      C3598   1.397       .  A
C3597      N3604   1.440       .  S
C3598      C3599   1.419       .  A
C3598      H3603   1.080       .  S
C3599      C3600   1.412       .  A
C3600      N3601   1.435       .  S
N3601      O3605   1.262       .  A
N3601      O3606   1.262       .  A
N3604      O3607   1.262       .  A
N3604      O3608   1.263       .  A
C3609      C3614   1.372       .  A
C3609      H3616   1.083       .  S
C3610      C3611   1.404       .  A
C3611      C3612   1.392   1_565  A
C3611      N3618   1.436       .  S
C3612      H3617   1.083       .  S
C3613      C3614   1.393       .  A
C3614      N3615   1.435       .  S
N3615      O3619   1.262       .  A
N3615      O3620   1.262       .  A
N3618      O3621   1.262       .  A
C3623      C3624   1.394   1_565  A
C3623      C3628   1.397       .  A
C3623      H3630   1.085       .  S
C3625      C3626   1.396       .  A
C3625      N3632   1.426       .  S
C3626      C3627   1.393       .  A
C3626      H3631   1.084       .  S
C3628      N3629   1.432       .  S
N3629      O3633   1.263       .  A
N3629      O3634   1.260       .  A
N3632      O3635   1.261       .  A
N3632      O3636   1.262       .  A
C3637      C3638   1.414       .  A
C3637      C3642   1.424       .  A
C3637      H3644   1.082       .  S
C3638      C3639   1.416       .  A
C3639      C3640   1.414       .  A
C3639      N3646   1.442       .  S
C3640      C3641   1.411       .  A
C3640      H3645   1.080       .  S
C3641      C3642   1.419       .  A
N3643      O3647   1.263       .  A
N3646      O3649   1.262       .  A
N3646      O3650   1.263       .  A
C3651      C3652   1.405       .  A
C3651      C3656   1.420       .  A
C3651      H3658   1.084       .  S
C3653      C3654   1.422       .  A
C3653      N3660   1.439       .  S
C3654      H3659   1.084       .  S
C3655      C3656   1.430       .  A
C3656      N3657   1.440       .  S
N3657      O3661   1.263       .  A
N3657      O3662   1.263       .  A
N3660      O3663   1.263       .  A
N3660      O3664   1.263       .  A
C3665      C3666   1.406       .  A
C3665      C3670   1.407       .  A
C3665      H3672   1.084       .  S
C3667      C3668   1.395       .  A
C3667      N3674   1.438       .  S
C3668      H3673   1.083       .  S
C3669      C3670   1.417       .  A
C3670      N3671   1.433       .  S
N3671      O3675   1.262       .  A
N3674      O3677   1.261       .  A
C3679      C3680   1.392   1_655  A
C3679      C3684   1.387       .  A
C3679      H3686   1.085       .  S
C3681      C3682   1.400       .  A
C3681      N3688   1.444       .  S
C3682      C3683   1.410       .  A
C3682      H3687   1.083       .  S
C3684      N3685   1.432       .  S
N3685      O3689   1.262       .  A
N3688      O3691   1.263       .  A
N3688      O3692   1.263       .  A
C3693      C3694   1.409       .  A
C3693      C3698   1.421       .  A
C3693      H3700   1.084       .  S
C3694      C3695   1.424   1_556  A
C3695      C3696   1.412       .  A
C3695      N3702   1.433       .  S
C3696      C3697   1.405       .  A
C3696      H3701   1.084       .  S
C3697      C3698   1.427   1_554  A
C3698      N3699   1.436       .  S
N3699      O3703   1.260       .  A
N3699      O3704   1.263       .  A
N3702      O3705   1.264       .  A
N3702      O3706   1.260       .  A
C3707      C3708   1.395   1_554  A
C3707      C3712   1.404       .  A
C3707      H3714   1.083       .  S
C3708      C3709   1.438       .  A
C3709      C3710   1.397       .  A
C3709      N3716   1.439       .  S
C3710      C3711   1.387   1_556  A
C3710      H3715   1.084       .  S
C3711      C3712   1.430       .  A
C3712      N3713   1.435       .  S
N3713      O3717   1.262       .  A
N3713      O3718   1.262       .  A
N3716      O3719   1.262       .  A
N3716      O3720   1.264       .  A
C3721      C3722   1.416       .  A
C3721      C3726   1.448       .  A
C3721      H3728   1.082       .  S
C3723      C3724   1.423       .  A
C3723      N3730   1.441   1_545  S
C3724      H3729   1.084   1_545  S
C3725      C3726   1.441       .  A
C3726      N3727   1.439       .  S
N3727      O3731   1.262       .  A
N3727      O3732   1.258       .  A
N3730      O3733   1.263       .  A
N3730      O3734   1.263       .  A
C3735      C3736   1.408       .  A
C3735      C3740   1.419       .  A
C3735      H3742   1.080   1_556  S
C3736      C3737   1.433       .  A
C3737      C3738   1.440       .  A
C3737      N3744   1.438       .  S
C3738      C3739   1.416       .  A
C3738      H3743   1.083       .  S
C3739      C3740   1.422       .  A
C3740      N3741   1.440   1_556  S
N3741      O3745   1.263       .  A
N3741      O3746   1.262       .  A
N3744      O3748   1.263       .  A
C3749      C3754   1.390   1_554  A
C3749      H3756   1.081       .  S
C3750      C3751   1.411       .  A
C3751      C3752   1.395   1_554  A
C3751      N3758   1.442       .  S
C3752      H3757   1.082       .  S
C3753      C3754   1.405       .  A
C3754      N3755   1.441       .  S
N3755      O3759   1.263       .  A
N3755      O3760   1.262       .  A
N3758      O3761   1.261       .  A
N3758      O3762   1.263       .  A
C3763      C3768   1.386       .  A
C3763      H3770   1.084       .  S
C3764      C3765   1.405   1_556  A
C3765      C3766   1.393       .  A
C3765      N3772   1.442   1_455  S
C3766      C3767   1.407   1_554  A
C3766      H3771   1.082       .  S
C3768      N3769   1.441       .  S
N3769      O3773   1.263       .  A
N3769      O3774   1.263       .  A
N3772      O3775   1.262       .  A
N3772      O3776   1.263       .  A
