geometry optimzed in LAMMPS
_audit_creation_date              2020-11-30 
_audit_creation_method            'lammps2cif' 
_symmetry_space_group_name_H-M    'P1' 
_symmetry_Int_Tables_number       1 
_symmetry_cell_setting            triclinic 
loop_ 
_symmetry_equiv_pos_as_xyz 
  x,y,z 
_cell_length_a                    59.73660057 
_cell_length_b                    59.49404645769838 
_cell_length_c                    26.88385609663694 
_cell_angle_alpha                 90.0814064873585 
_cell_angle_beta                  90.00784598762446 
_cell_angle_gamma                 90.20742435121373 
loop_ 
_atom_site_label 
_atom_site_type_symbol 
_atom_site_fract_x 
_atom_site_fract_y 
_atom_site_fract_z 
_atom_site_charge 
N1          N  0.37748010  0.99958906  0.41496793    -0.34900
N2          N  0.37926199  0.96468122  0.49069818    -0.55400
N3          N  0.38371728  0.99916432  0.56684579    -0.34800
N4          N  0.37973262  0.03405132  0.49138497    -0.55400
C5          C  0.37191591  0.98127982  0.38767867     0.28700
C6          C  0.37176707  0.01792558  0.38812946     0.28700
C7          C  0.38048919  0.98078615  0.59563666     0.28700
C8          C  0.38072894  0.01745501  0.59603351     0.28700
C9          C  0.38127056  0.95169198  0.44968876     0.37400
C10         C  0.38422545  0.95144036  0.52994455     0.37400
C11         C  0.38125618  0.04734017  0.45078747     0.37400
C12         C  0.38470282  0.04712832  0.53102662     0.37400
C13         C  0.36276596  0.98804698  0.34272350    -0.20100
C14         C  0.36265314  0.01116985  0.34301719    -0.20100
C15         C  0.37572191  0.98748067  0.64393180    -0.20100
C16         C  0.37586736  0.01060309  0.64418526    -0.20100
C17         C  0.38724948  0.93001716  0.46297920    -0.21200
C18         C  0.38908285  0.92984791  0.51387714    -0.21200
C19         C  0.38703991  0.06904433  0.46471007    -0.21200
C20         C  0.38921943  0.06891164  0.51558516    -0.21200
C21         C  0.37629008  0.95873463  0.40084919    -0.16500
C22         C  0.37585562  0.04051391  0.40192126    -0.16500
C23         C  0.38352362  0.04008786  0.58110142    -0.16500
C24         C  0.38304966  0.95820841  0.58017499    -0.16500
H25         H  0.35697552  0.97742708  0.31259701     0.16400
H26         H  0.35675795  0.02179267  0.31313570     0.16400
H27         H  0.37263384  0.97682184  0.67581904     0.16400
H28         H  0.37290542  0.02115598  0.67633160     0.16400
H29         H  0.38974410  0.91574504  0.43861732     0.14700
H30         H  0.39332161  0.91543659  0.53648497     0.14700
H31         H  0.38911277  0.08353172  0.44081407     0.14700
H32         H  0.39330595  0.08328404  0.53863155     0.14700
H33         H  0.38705683  0.99955626  0.44715931     0.27900
H34         H  0.39005169  0.99922326  0.53095015     0.27900
In35       In  0.39389081  0.17086098  0.99393247     1.36900
C36         C  0.43809261  0.17654234  0.99500275     0.79300
O37         O  0.39458660  0.16992358  0.07776730    -0.59100
O38         O  0.37871806  0.14304391  0.03946670    -0.50000
C39         C  0.36382449  0.20363694  0.99440204     0.72000
O40         O  0.38423150  0.20705430  0.00330597    -0.44900
C41         C  0.39009335  0.15090968  0.90577380     0.76700
O42         O  0.42474338  0.19274383  0.99060319    -0.56700
O43         O  0.38795612  0.14046961  0.94618195    -0.46800
O44         O  0.42896671  0.15753960  0.99900844    -0.53200
C45         C  0.38424062  0.15151544  0.08058185     0.86900
O46         O  0.35871599  0.18358230  0.98447822    -0.55100
O47         O  0.39382650  0.17167958  0.91004335    -0.58400
In48       In  0.40080133  0.82834308  0.99134555     1.36900
C49         C  0.44488208  0.82216438  0.99212077     0.79300
O50         O  0.40118009  0.82757417  0.90757256    -0.59100
O51         O  0.39490704  0.85869021  0.94383784    -0.50000
C52         C  0.37002713  0.79586470  0.99121282     0.72000
O53         O  0.38994545  0.79250599  0.00446006    -0.44900
C54         C  0.39134216  0.84875169  0.07705978     0.76700
O55         O  0.43130182  0.80630193  0.98442134    -0.56700
O56         O  0.38594100  0.85676785  0.03550618    -0.46800
O57         O  0.43605083  0.84104917  0.99930714    -0.53200
C58         C  0.39705574  0.84823320  0.90340291     0.86900
O59         O  0.36579284  0.81567725  0.97805673    -0.55100
O60         O  0.40135712  0.83019250  0.07517263    -0.58400
N61         N  0.68687828  0.00128856  0.42785665    -0.34900
N62         N  0.68690997  0.96635240  0.50379508    -0.55400
N63         N  0.68495757  0.00082586  0.57992062    -0.34800
N64         N  0.68695499  0.03582176  0.50393864    -0.55400
C65         C  0.69169432  0.98305194  0.39979682     0.28700
C66         C  0.69131571  0.01967423  0.39988889     0.28700
C67         C  0.68891183  0.98251219  0.60839598     0.28700
C68         C  0.68897549  0.01915677  0.60843191     0.28700
C69         C  0.68484100  0.95315389  0.46314596     0.37400
C70         C  0.68373524  0.95291533  0.54365654     0.37400
C71         C  0.68382779  0.04903493  0.46370296     0.37400
C72         C  0.68302635  0.04879881  0.54422336     0.37400
C73         C  0.69910785  0.98993646  0.35330109    -0.20100
C74         C  0.69886256  0.01303593  0.35336062    -0.20100
C75         C  0.69525627  0.98930429  0.65575075    -0.20100
C76         C  0.69531269  0.01241207  0.65576419    -0.20100
C77         C  0.68062038  0.93112274  0.47724179    -0.21200
C78         C  0.67992364  0.93097199  0.52830048    -0.21200
C79         C  0.67821803  0.07062371  0.47847235    -0.21200
C80         C  0.67771303  0.07047814  0.52955447    -0.21200
C81         C  0.68821218  0.96041478  0.41375802    -0.16500
C82         C  0.68732603  0.04217836  0.41407124    -0.16500
C83         C  0.68559909  0.04172478  0.59395790    -0.16500
C84         C  0.68588751  0.95988636  0.59361327    -0.16500
H85         H  0.70396439  0.97940653  0.32228542     0.16400
H86         H  0.70348436  0.02371557  0.32242672     0.16400
H87         H  0.69929546  0.97871914  0.68719254     0.16400
H88         H  0.69934359  0.02303354  0.68726248     0.16400
H89         H  0.67859633  0.91661661  0.45328882     0.14700
H90         H  0.67726799  0.91633276  0.55145571     0.14700
H91         H  0.67504814  0.08501347  0.45493963     0.14700
H92         H  0.67407904  0.08475033  0.55318736     0.14700
H93         H  0.67847335  0.00114118  0.46155575     0.27900
H94         H  0.67745009  0.00085521  0.54519546     0.27900
In95       In  0.66572517  0.17209710  0.00413464     1.36900
C96         C  0.62143081  0.17628756  0.99960216     0.79300
O97         O  0.66841776  0.17251504  0.92067570    -0.59100
O98         O  0.67272582  0.14145854  0.95847884    -0.50000
C99         C  0.69548667  0.20542175  0.00865154     0.72000
O100        O  0.67487859  0.20852702  0.01559777    -0.44900
C101        C  0.67365737  0.15263329  0.09101135     0.76700
O102        O  0.63450479  0.19268389  0.99310444    -0.56700
O103        O  0.68120158  0.14510664  0.05064282    -0.46800
O104        O  0.63087834  0.15785346  0.00839901    -0.53200
C105        C  0.67215009  0.15173754  0.91765821     0.86900
O106        O  0.70087608  0.18547442  0.99893926    -0.55100
O107        O  0.66231183  0.17035559  0.08743038    -0.58400
In108      In  0.67184320  0.82891268  0.00344130     1.36900
C109        C  0.62781966  0.82251853  0.00213234     0.79300
O110        O  0.66952019  0.82996054  0.08710905    -0.59100
O111        O  0.68318522  0.85822320  0.04943155    -0.50000
C112        C  0.70275882  0.79683232  0.00551088     0.72000
O113        O  0.68215264  0.79265291  0.00835725    -0.44900
C114        C  0.67758339  0.84852891  0.91550872     0.76700
O115        O  0.64145318  0.80654567  0.99786024    -0.56700
O116        O  0.68123595  0.85848571  0.95598744    -0.46800
O117        O  0.63657602  0.84165376  0.00710518    -0.53200
C118        C  0.67764953  0.84947614  0.09018236     0.86900
O119        O  0.70769989  0.81734635  0.00228344    -0.55100
O120        O  0.67112317  0.82846314  0.91956494    -0.58400
N121        N  0.03363133  0.34268047  0.58466424    -0.34900
N122        N  0.06838158  0.34183773  0.50867006    -0.55400
N123        N  0.03377932  0.34122551  0.43266287    -0.34800
N124        N  0.99909449  0.34004102  0.50880391    -0.55400
C125        C  0.05203956  0.33953731  0.61312066     0.28700
C126        C  0.01555324  0.33791811  0.61321179     0.28700
C127        C  0.05207084  0.33687853  0.40455629     0.28700
C128        C  0.01556329  0.33658014  0.40449972     0.28700
C129        C  0.08137168  0.34618126  0.54869759     0.37400
C130        C  0.08149147  0.34463064  0.46818965     0.37400
C131        C  0.98581604  0.34276707  0.54903443     0.37400
C132        C  0.98589674  0.34265755  0.46843517     0.37400
C133        C  0.04557969  0.33288014  0.66045082    -0.20100
C134        C  0.02258333  0.33183428  0.66048970    -0.20100
C135        C  0.04537128  0.32956666  0.35781983    -0.20100
C136        C  0.02235653  0.32941942  0.35775266    -0.20100
C137        C  0.10296417  0.35145344  0.53363102    -0.21200
C138        C  0.10305104  0.35042563  0.48257002    -0.21200
C139        C  0.96396560  0.34678463  0.53417661    -0.21200
C140        C  0.96402125  0.34675007  0.48307011    -0.21200
C141        C  0.07438280  0.34392481  0.59859727    -0.16500
C142        C  0.99290046  0.34031326  0.59882693    -0.16500
C143        C  0.99302804  0.33989608  0.41874001    -0.16500
C144        C  0.07456088  0.34077208  0.41870740    -0.16500
H145        H  0.05631071  0.32935104  0.69191286     0.16400
H146        H  0.01221474  0.32736425  0.69200113     0.16400
H147        H  0.05596080  0.32506503  0.32671874     0.16400
H148        H  0.01182395  0.32472618  0.32663106     0.16400
H149        H  0.11723108  0.35532065  0.55699237     0.14700
H150        H  0.11737732  0.35341966  0.45880117     0.14700
H151        H  0.94946731  0.34925865  0.55767678     0.14700
H152        H  0.94955958  0.34914268  0.45942271     0.14700
H153        H  0.03336853  0.35027611  0.54999995     0.27900
H154        H  0.03367698  0.34943612  0.46668791     0.27900
In155      In  0.20474043  0.36612033  0.01024040     1.36900
C156        C  0.21216090  0.41018697  0.00716722     0.79300
O157        O  0.20459180  0.36266627  0.92661716    -0.59100
O158        O  0.17347566  0.36200232  0.96472355    -0.50000
C159        C  0.23729476  0.33596300  0.01308681     0.72000
O160        O  0.24064248  0.35642579  0.02251800    -0.44900
C161        C  0.18537970  0.35749000  0.09731384     0.76700
O162        O  0.22709465  0.39605279  0.99690891    -0.56700
O163        O  0.17767426  0.35035087  0.05667715    -0.46800
O164        O  0.19344178  0.40192018  0.01861186    -0.53200
C165        C  0.18360841  0.36111408  0.92375656     0.86900
O166        O  0.21740897  0.33084757  0.00241164    -0.55100
O167        O  0.20315313  0.36881202  0.09386181    -0.58400
In168      In  0.86223554  0.36219987  0.00908364     1.36900
C169        C  0.85572893  0.40642146  0.00737724     0.79300
O170        O  0.86236079  0.35711421  0.09222066    -0.59100
O171        O  0.89347608  0.35718860  0.05408220    -0.50000
C172        C  0.82784151  0.33354037  0.01233252     0.72000
O173        O  0.82635525  0.35355176  0.02711340    -0.44900
C174        C  0.88348273  0.35374500  0.92394451     0.76700
O175        O  0.84137704  0.39266057  0.99133328    -0.56700
O176        O  0.88901152  0.34482815  0.96453722    -0.46800
O177        O  0.87341686  0.39771984  0.02371498    -0.53200
C178        C  0.88332858  0.35551436  0.09491422     0.86900
O179        O  0.84672332  0.32816159  0.99546513    -0.55100
O180        O  0.86695434  0.36678123  0.92644902    -0.58400
N181        N  0.03329168  0.65283308  0.41712552    -0.34900
N182        N  0.99851183  0.65496542  0.49277109    -0.55400
N183        N  0.03293065  0.65402192  0.56948200    -0.34800
N184        N  0.06771181  0.65391539  0.49368012    -0.55400
C185        C  0.01521490  0.65735802  0.38852966     0.28700
C186        C  0.05170989  0.65660221  0.38899978     0.28700
C187        C  0.01463803  0.65863482  0.59738859     0.28700
C188        C  0.05118471  0.65841377  0.59781400     0.28700
C189        C  0.98544808  0.65165796  0.45235574     0.37400
C190        C  0.98522423  0.65212750  0.53296784     0.37400
C191        C  0.08092506  0.65028745  0.45372803     0.37400
C192        C  0.08079148  0.65132369  0.53424016     0.37400
C193        C  0.02223892  0.66387885  0.34149553    -0.20100
C194        C  0.04525376  0.66338977  0.34178569    -0.20100
C195        C  0.02135827  0.66572870  0.64426953    -0.20100
C196        C  0.04438184  0.66559866  0.64453285    -0.20100
C197        C  0.96366268  0.64695022  0.46690760    -0.21200
C198        C  0.96351986  0.64724978  0.51801378    -0.21200
C199        C  0.10259608  0.64559510  0.46893608    -0.21200
C200        C  0.10251679  0.64628142  0.51998838    -0.21200
C201        C  0.99260184  0.65432626  0.40265534    -0.16500
C202        C  0.07409306  0.65282597  0.40382896    -0.16500
C203        C  0.07375192  0.65498587  0.58368938    -0.16500
C204        C  0.99208641  0.65541166  0.58273954    -0.16500
H205        H  0.01185905  0.66830268  0.31001227     0.16400
H206        H  0.05600221  0.66739711  0.31059600     0.16400
H207        H  0.01077317  0.67038573  0.67526166     0.16400
H208        H  0.05490719  0.67014133  0.67577167     0.16400
H209        H  0.94931799  0.64390893  0.44319624     0.14700
H210        H  0.94903867  0.64448944  0.54144880     0.14700
H211        H  0.11703365  0.64239025  0.44568742     0.14700
H212        H  0.11687035  0.64366749  0.54384213     0.14700
H213        H  0.03302740  0.64506587  0.45161644     0.27900
H214        H  0.03291043  0.64596634  0.53525696     0.27900
In215      In  0.20482105  0.63727734  0.99318157     1.36900
C216        C  0.21305351  0.59336837  0.99637812     0.79300
O217        O  0.20480223  0.63861150  0.07691219    -0.59100
O218        O  0.17370646  0.64138428  0.03913829    -0.50000
C219        C  0.23695545  0.66832301  0.99039952     0.72000
O220        O  0.24008461  0.64834453  0.97675681    -0.44900
C221        C  0.18409114  0.64572459  0.90761662     0.76700
O222        O  0.22757119  0.60786810  0.00775898    -0.56700
O223        O  0.17661955  0.65224671  0.94893623    -0.46800
O224        O  0.19448452  0.60119618  0.98288904    -0.53200
C225        C  0.18391123  0.64088742  0.08006978     0.86900
O226        O  0.21743552  0.67258640  0.00514799    -0.55100
O227        O  0.20233204  0.63522466  0.90965710    -0.58400
In228      In  0.86184790  0.63379876  0.99174362     1.36900
C229        C  0.85373544  0.58982283  0.99601215     0.79300
O230        O  0.86205625  0.63412387  0.90791952    -0.59100
O231        O  0.89101724  0.64564791  0.94627512    -0.50000
C232        C  0.83105179  0.66587817  0.98925032     0.72000
O233        O  0.82706829  0.64607131  0.97516819    -0.44900
C234        C  0.88342215  0.63840407  0.07745503     0.76700
O235        O  0.83933579  0.60416242  0.00846764    -0.56700
O236        O  0.89318314  0.63924411  0.03600759    -0.46800
O237        O  0.87198642  0.59785220  0.98088230    -0.53200
C238        C  0.88162167  0.64198714  0.90514991     0.86900
O239        O  0.85063889  0.66933315  0.00476619    -0.55100
O240        O  0.86255371  0.63538072  0.07542999    -0.58400
C241        C  0.91683922  0.65168999  0.77712332     0.18800
C242        C  0.93153497  0.67000761  0.77277496    -0.10300
C243        C  0.94591325  0.67160136  0.73178978    -0.11200
C244        C  0.94566261  0.65488518  0.69497929     0.20400
C245        C  0.93073160  0.63675945  0.69900627    -0.13200
C246        C  0.91636929  0.63516352  0.73995953    -0.11500
C247        C  0.96132915  0.65577950  0.65424121     0.01300
C248        C  0.97501545  0.65586216  0.62118942    -0.31500
C249        C  0.90313837  0.64916413  0.82086664     0.02700
C250        C  0.89267619  0.64618391  0.85866793    -0.33200
H251        H  0.93214449  0.68282381  0.80142268     0.13700
H252        H  0.95745164  0.68564336  0.72920481     0.13600
H253        H  0.93044424  0.62369039  0.67090740     0.13400
H254        H  0.90517690  0.62086316  0.74305928     0.12500
C255        C  0.94758193  0.65122054  0.28809953     0.18800
C256        C  0.95020310  0.66539282  0.24691747    -0.10300
C257        C  0.93639796  0.66276562  0.20527417    -0.11200
C258        C  0.91991014  0.64595363  0.20458968     0.20400
C259        C  0.91714913  0.63190292  0.24594363    -0.13200
C260        C  0.93095597  0.63453946  0.28762118    -0.11500
C261        C  0.90616625  0.64295044  0.16107311     0.01300
C262        C  0.89534145  0.64075027  0.12351423    -0.31500
C263        C  0.96256923  0.65314370  0.32984100     0.02700
C264        C  0.97584186  0.65403866  0.36361460    -0.33200
H265        H  0.96307802  0.67826729  0.24676759     0.13700
H266        H  0.93870621  0.67369626  0.17346808     0.13600
H267        H  0.90448297  0.61882328  0.24579499     0.13400
H268        H  0.92885928  0.62341755  0.31916894     0.12500
C269        C  0.14781463  0.65373423  0.78027551     0.18800
C270        C  0.12966210  0.66859040  0.77987495    -0.10300
C271        C  0.11560608  0.66969446  0.73831713    -0.11200
C272        C  0.11960982  0.65593797  0.69693580     0.20400
C273        C  0.13794214  0.64130258  0.69702256    -0.13200
C274        C  0.15200284  0.64019345  0.73860748    -0.11500
C275        C  0.10429356  0.65609550  0.65554692     0.01300
C276        C  0.09070902  0.65575117  0.62232319    -0.31500
C277        C  0.16156172  0.65176657  0.82412287     0.02700
C278        C  0.17231265  0.64944820  0.86177114    -0.33200
H279        H  0.12619624  0.67907573  0.81192349     0.13700
H280        H  0.10141968  0.68099011  0.73876994     0.13600
H281        H  0.14114349  0.63051204  0.66533217     0.13400
H282        H  0.16592815  0.62857698  0.73854741     0.12500
C283        C  0.12031894  0.65010920  0.29186097     0.18800
C284        C  0.13471380  0.63169008  0.28698472    -0.10300
C285        C  0.14884622  0.63004358  0.24564476    -0.11200
C286        C  0.14862066  0.64681772  0.20909904     0.20400
C287        C  0.13450303  0.66541334  0.21447831    -0.13200
C288        C  0.12038210  0.66705339  0.25575909    -0.11500
C289        C  0.16210936  0.64457427  0.16504737     0.01300
C290        C  0.17248794  0.64282089  0.12680032    -0.31500
C291        C  0.10481079  0.65122149  0.33266178     0.02700
C292        C  0.09109807  0.65206365  0.36547322    -0.33200
H293        H  0.13474396  0.61846501  0.31465142     0.13700
H294        H  0.15965280  0.61556052  0.24177495     0.13600
H295        H  0.13415031  0.67844225  0.18637487     0.13400
H296        H  0.10926474  0.68132579  0.25911552     0.12500
C297        C  0.84773727  0.52170048  0.00431311     0.18800
C298        C  0.85790843  0.51063755  0.04432258    -0.10300
C299        C  0.85838307  0.48714039  0.04573242    -0.11200
C300        C  0.84870747  0.47459280  0.00710896     0.20400
C301        C  0.83832730  0.48565198  0.96736965    -0.13200
C302        C  0.83785454  0.50915443  0.96595717    -0.11500
C303        C  0.85018688  0.45043966  0.00733821     0.01300
C304        C  0.85228034  0.43028576  0.00716918    -0.31500
C305        C  0.84824835  0.54586917  0.00172911     0.02700
C306        C  0.84992598  0.56604010  0.99922678    -0.33200
H307        H  0.86569985  0.52016624  0.07406428     0.13700
H308        H  0.86653708  0.47877392  0.07654388     0.13600
H309        H  0.83087675  0.47612288  0.93720825     0.13400
H310        H  0.83004146  0.51752758  0.93472552     0.12500
C311        C  0.22101857  0.52538637  0.00322249     0.18800
C312        C  0.22484866  0.51309074  0.95957067    -0.10300
C313        C  0.22465995  0.48958141  0.96068669    -0.11200
C314        C  0.22062869  0.47824500  0.00546262     0.20400
C315        C  0.21727519  0.49053299  0.04934007    -0.13200
C316        C  0.21746081  0.51405113  0.04822184    -0.11500
C317        C  0.21876029  0.45410196  0.00589552     0.01300
C318        C  0.21614939  0.43399037  0.00620841    -0.31500
C319        C  0.21957276  0.54953698  0.00128412     0.02700
C320        C  0.21718360  0.56963691  0.99904914    -0.33200
H321        H  0.22753739  0.52166694  0.92454200     0.13700
H322        H  0.22719762  0.48026346  0.92650813     0.13600
H323        H  0.21406544  0.48195029  0.08415009     0.13400
H324        H  0.21439964  0.52337340  0.08218129     0.12500
C325        C  0.91990226  0.34705246  0.22140907     0.18800
C326        C  0.93970219  0.33461388  0.21756680    -0.10300
C327        C  0.95382088  0.33242896  0.25874987    -0.11200
C328        C  0.94819855  0.34266694  0.30398888     0.20400
C329        C  0.92835913  0.35503588  0.30793078    -0.13200
C330        C  0.91423227  0.35722962  0.26670860    -0.11500
C331        C  0.96312232  0.34102551  0.34580889     0.01300
C332        C  0.97629085  0.34018466  0.37973132    -0.31500
C333        C  0.90580183  0.34979518  0.17843716     0.02700
C334        C  0.89495875  0.35225488  0.14102507    -0.33200
H335        H  0.94429781  0.32675916  0.18266244     0.13700
H336        H  0.96918153  0.32292658  0.25522621     0.13600
H337        H  0.92391750  0.36310871  0.34268792     0.13400
H338        H  0.89901572  0.36696855  0.27003967     0.12500
C339        C  0.91932110  0.34410862  0.79629826     0.18800
C340        C  0.91714863  0.35945536  0.75709274    -0.10300
C341        C  0.93106794  0.35786034  0.71536266    -0.11200
C342        C  0.94724709  0.34090626  0.71258327     0.20400
C343        C  0.94914918  0.32530003  0.75135722    -0.13200
C344        C  0.93522229  0.32689222  0.79309630    -0.11500
C345        C  0.96252819  0.34013863  0.67111995     0.01300
C346        C  0.97599919  0.34000222  0.63764124    -0.31500
C347        C  0.90595788  0.34667576  0.84063135     0.02700
C348        C  0.89537795  0.34958837  0.87835666    -0.33200
H349        H  0.90497138  0.37287471  0.75917345     0.13700
H350        H  0.92947694  0.37006111  0.68570259     0.13600
H351        H  0.96164263  0.31216261  0.74971204     0.13400
H352        H  0.93711743  0.31496277  0.82320130     0.12500
C353        C  0.11864908  0.34991626  0.71393841     0.18800
C354        C  0.13996870  0.35952437  0.70864227    -0.10300
C355        C  0.15400226  0.36179135  0.75007705    -0.11200
C356        C  0.14675312  0.35444769  0.79692671     0.20400
C357        C  0.12540057  0.34491986  0.80217057    -0.13200
C358        C  0.11138814  0.34265894  0.76080104    -0.11500
C359        C  0.16100811  0.35678736  0.83984855     0.01300
C360        C  0.17193915  0.35867580  0.87735820    -0.31500
C361        C  0.10406887  0.34767651  0.67160659     0.02700
C362        C  0.09106579  0.34584419  0.63752597    -0.33200
H363        H  0.14571083  0.36526137  0.67258774     0.13700
H364        H  0.17044916  0.36924900  0.74560877     0.13600
H365        H  0.11959178  0.33925097  0.83822851     0.13400
H366        H  0.09490404  0.33528109  0.76534637     0.12500
C367        C  0.12043273  0.34303245  0.30568296     0.18800
C368        C  0.13840960  0.35820546  0.30781945    -0.10300
C369        C  0.15292370  0.36039849  0.26723344    -0.11200
C370        C  0.14952825  0.34741288  0.22433644     0.20400
C371        C  0.13166855  0.33209328  0.22240538    -0.13200
C372        C  0.11715443  0.32991050  0.26296171    -0.11500
C373        C  0.16366180  0.35048110  0.18144100     0.01300
C374        C  0.17430267  0.35344972  0.14386980    -0.31500
C375        C  0.10493404  0.34148894  0.34656421     0.02700
C376        C  0.09143514  0.34083027  0.37991046    -0.37600
H377        H  0.14104120  0.36850653  0.34058423     0.13700
H378        H  0.16658712  0.37239575  0.26905024     0.13600
H379        H  0.12879558  0.32206601  0.18932507     0.13400
H380        H  0.10324990  0.31820422  0.26079563     0.12500
C381        C  0.78347531  0.71485098  0.99127645     0.18800
C382        C  0.78934336  0.73693312  0.00410944    -0.10300
C383        C  0.77280693  0.75342016  0.00812312    -0.11200
C384        C  0.75032806  0.74790329  0.99934954     0.20400
C385        C  0.74446386  0.72583883  0.98630966    -0.13200
C386        C  0.76100541  0.70934666  0.98229584    -0.11500
C387        C  0.73337429  0.76495807  0.00306989     0.01300
C388        C  0.71936198  0.77946648  0.00505669    -0.31500
C389        C  0.80039936  0.69772812  0.98870073     0.02700
C390        C  0.81443700  0.68322215  0.98817533    -0.33200
H391        H  0.80665526  0.74136423  0.01126781     0.13700
H392        H  0.77753418  0.77043862  0.01809250     0.13600
H393        H  0.72714185  0.72139571  0.97930800     0.13400
H394        H  0.75627499  0.69231036  0.97248085     0.12500
C395        C  0.77658660  0.28795352  0.01779635     0.18800
C396        C  0.75745429  0.29094091  0.98840710    -0.10300
C397        C  0.74060795  0.27453909  0.98778098    -0.11200
C398        C  0.74278374  0.25504671  0.01654223     0.20400
C399        C  0.76179742  0.25216097  0.04640917    -0.13200
C400        C  0.77865587  0.26857477  0.04703589    -0.11500
C401        C  0.72576592  0.23782844  0.01444650     0.01300
C402        C  0.71173587  0.22322620  0.01186673    -0.31500
C403        C  0.79433753  0.30443866  0.01677015     0.02700
C404        C  0.80946074  0.31792539  0.01489290    -0.33200
H405        H  0.75567584  0.30582080  0.96558364     0.13700
H406        H  0.72600620  0.27694935  0.96451136     0.13600
H407        H  0.76368745  0.23715055  0.06877241     0.13400
H408        H  0.79338446  0.26604867  0.06984835     0.12500
C409        C  0.68362285  0.88691180  0.21629941     0.18800
C410        C  0.67498237  0.88010931  0.26234329    -0.10300
C411        C  0.67649811  0.89442344  0.30352015    -0.11200
C412        C  0.68665176  0.91556766  0.29873562     0.20400
C413        C  0.69529236  0.92237060  0.25270994    -0.13200
C414        C  0.69378232  0.90806465  0.21156389    -0.11500
C415        C  0.68777658  0.93050813  0.34065688     0.01300
C416        C  0.68828603  0.94368047  0.37467585    -0.31500
C417        C  0.68174486  0.87244451  0.17361378     0.02700
C418        C  0.68002577  0.86125035  0.13642951    -0.33200
H419        H  0.66701257  0.86382581  0.26632936     0.13700
H420        H  0.66967899  0.88907089  0.33893702     0.13600
H421        H  0.70307893  0.93874325  0.24860749     0.13400
H422        H  0.70043115  0.91351920  0.17606147     0.12500
C423        C  0.68443312  0.88412347  0.78722801     0.18800
C424        C  0.69653842  0.90428561  0.79042287    -0.10300
C425        C  0.69725927  0.91893896  0.74985846    -0.11200
C426        C  0.68589067  0.91349673  0.70586641     0.20400
C427        C  0.67410849  0.89314286  0.70230283    -0.13200
C428        C  0.67337287  0.87847504  0.74293845    -0.11500
C429        C  0.68586284  0.92911555  0.66505724     0.01300
C430        C  0.68583094  0.94281375  0.63204210    -0.31500
C431        C  0.68243347  0.86996664  0.83036087     0.02700
C432        C  0.68036251  0.85946730  0.86840109    -0.33200
H433        H  0.70507020  0.90886165  0.82455643     0.13700
H434        H  0.70640008  0.93464081  0.75302516     0.13600
H435        H  0.66524796  0.88878494  0.66845080     0.13400
H436        H  0.66388526  0.86297067  0.74013558     0.12500
C437        C  0.67913669  0.11607330  0.78952695     0.18800
C438        C  0.70021538  0.10995607  0.77124162    -0.10300
C439        C  0.70184029  0.09568468  0.73003818    -0.11200
C440        C  0.68239161  0.08750810  0.70706884     0.20400
C441        C  0.66132924  0.09380882  0.72507288    -0.13200
C442        C  0.65970486  0.10806600  0.76623810    -0.11500
C443        C  0.68397718  0.07211157  0.66604813     0.01300
C444        C  0.68490954  0.05860560  0.63271947    -0.31500
C445        C  0.67735530  0.12981271  0.83330601     0.02700
C446        C  0.67526360  0.14040195  0.87119195    -0.33200
H447        H  0.71533855  0.11598151  0.78916494     0.13700
H448        H  0.71820452  0.09083047  0.71647093     0.13600
H449        H  0.64619715  0.08750399  0.70765473     0.13400
H450        H  0.64333114  0.11262017  0.78026605     0.12500
C451        C  0.68236191  0.11621214  0.21747440     0.18800
C452        C  0.69135251  0.09463876  0.21182125    -0.10300
C453        C  0.69293629  0.08029330  0.25281589    -0.11200
C454        C  0.68553745  0.08745409  0.29966912     0.20400
C455        C  0.67672309  0.10909961  0.30542065    -0.13200
C456        C  0.67513283  0.12345516  0.26439006    -0.11500
C457        C  0.68651274  0.07237281  0.34143332     0.01300
C458        C  0.68703710  0.05908385  0.37525924    -0.31500
C459        C  0.67985798  0.13050407  0.17472910     0.02700
C460        C  0.67727379  0.14136302  0.13738332    -0.33200
H461        H  0.69690481  0.08883358  0.17566233     0.13700
H462        H  0.69972135  0.06356975  0.24791124     0.13600
H463        H  0.67090093  0.11478066  0.34145520     0.13400
H464        H  0.66806683  0.14006660  0.26912490     0.12500
C465        C  0.28690767  0.71532189  0.98985154     0.18800
C466        C  0.29408291  0.72516251  0.94526580    -0.10300
C467        C  0.31123748  0.74123971  0.94569535    -0.11200
C468        C  0.32131672  0.74754686  0.99070247     0.20400
C469        C  0.31414234  0.73770215  0.03529568    -0.13200
C470        C  0.29698630  0.72162289  0.03486633    -0.11500
C471        C  0.33886284  0.76422936  0.99111757     0.01300
C472        C  0.35329788  0.77846580  0.99123467    -0.31500
C473        C  0.26920633  0.69881609  0.98946029     0.02700
C474        C  0.25441909  0.68495733  0.98956785    -0.33200
H475        H  0.28641217  0.72043069  0.91024509     0.13700
H476        H  0.31661888  0.74876028  0.91099957     0.13600
H477        H  0.32178316  0.74246632  0.07032735     0.13400
H478        H  0.29157057  0.71413474  0.06957257     0.12500
C479        C  0.55981818  0.81698177  0.99916683     0.18800
C480        C  0.54750958  0.82325427  0.04128687    -0.10300
C481        C  0.52410650  0.82325589  0.03972108    -0.11200
C482        C  0.51289931  0.81698650  0.99602706     0.20400
C483        C  0.52520707  0.81065092  0.95394405    -0.13200
C484        C  0.54861941  0.81064931  0.95551042    -0.11500
C485        C  0.48882245  0.81763944  0.99407600     0.01300
C486        C  0.46870062  0.81909928  0.99284879    -0.31500
C487        C  0.58389791  0.81771177  0.00034123     0.02700
C488        C  0.60401644  0.81930211  0.00122761    -0.33200
H489        H  0.55599584  0.82829648  0.07515517     0.13700
H490        H  0.51476474  0.82828987  0.07240849     0.13600
H491        H  0.51672063  0.80587807  0.91989284     0.13400
H492        H  0.55797281  0.80588429  0.92264436     0.12500
C493        C  0.31764678  0.25377545  0.00323153     0.18800
C494        C  0.32375914  0.27610920  0.99356771    -0.10300
C495        C  0.30784521  0.29321372  0.99738746    -0.11200
C496        C  0.28577721  0.28803608  0.01093218     0.20400
C497        C  0.27970635  0.26572769  0.02089380    -0.13200
C498        C  0.29561049  0.24863313  0.01707208    -0.11500
C499        C  0.26919767  0.30545947  0.01331330     0.01300
C500        C  0.25485406  0.31963211  0.01394474    -0.31500
C501        C  0.33394757  0.23613559  0.99902215     0.02700
C502        C  0.34755557  0.22128322  0.99620463    -0.33200
H503        H  0.34076475  0.28026890  0.98290764     0.13700
H504        H  0.31269347  0.31040740  0.98948113     0.13600
H505        H  0.26266907  0.26154282  0.03126794     0.13400
H506        H  0.29071753  0.23142622  0.02469672     0.12500
C507        C  0.55323698  0.18044113  0.99495800     0.18800
C508        C  0.54130412  0.16789964  0.95957689    -0.10300
C509        C  0.51788833  0.16822252  0.95937416    -0.11200
C510        C  0.50625877  0.18108571  0.99453787     0.20400
C511        C  0.51818195  0.19376285  0.02972135    -0.13200
C512        C  0.54161796  0.19344175  0.02992109    -0.11500
C513        C  0.48213675  0.18073334  0.99514092     0.01300
C514        C  0.46197808  0.17938932  0.99524961    -0.31500
C515        C  0.57734420  0.17957685  0.99600324     0.02700
C516        C  0.59749772  0.17837254  0.99735396    -0.33200
H517        H  0.55008833  0.15774631  0.93243452     0.13700
H518        H  0.50885404  0.15830599  0.93208347     0.13600
H519        H  0.50937994  0.20372248  0.05718306     0.13400
H520        H  0.55065987  0.20316863  0.05752589     0.12500
C521        C  0.38639717  0.91120189  0.69092638     0.18800
C522        C  0.36980263  0.91118045  0.72772580    -0.10300
C523        C  0.37171398  0.89700862  0.76892935    -0.11200
C524        C  0.39022732  0.88277452  0.77354739     0.20400
C525        C  0.40660822  0.88244073  0.73623480    -0.13200
C526        C  0.40469019  0.89662717  0.69496867    -0.11500
C527        C  0.39283679  0.86935725  0.81767047     0.01300
C528        C  0.39488133  0.85917844  0.85614004    -0.31500
C529        C  0.38514454  0.92697164  0.65048784     0.02700
C530        C  0.38415976  0.94095992  0.61814260    -0.33200
H531        H  0.35562928  0.92242745  0.72504911     0.13700
H532        H  0.35898225  0.89744982  0.79761139     0.13600
H533        H  0.42102503  0.87154391  0.73949140     0.13400
H534        H  0.41765232  0.89655182  0.66678487     0.12500
C535        C  0.37714563  0.91256322  0.28794377     0.18800
C536        C  0.39665002  0.89995941  0.28079645    -0.10300
C537        C  0.39856279  0.88573937  0.23955263    -0.11200
C538        C  0.38098260  0.88403862  0.20522083     0.20400
C539        C  0.36128983  0.89631540  0.21288764    -0.13200
C540        C  0.35937774  0.91055333  0.25416592    -0.11500
C541        C  0.38367605  0.87061795  0.16095714     0.01300
C542        C  0.38679473  0.86020004  0.12304669    -0.31500
C543        C  0.37583075  0.92824069  0.32866116     0.02700
C544        C  0.37558679  0.94189644  0.36185156    -0.33200
H545        H  0.41051508  0.90142612  0.30660231     0.13700
H546        H  0.41389592  0.87640249  0.23393558     0.13600
H547        H  0.34761793  0.89520904  0.18650666     0.13400
H548        H  0.34424387  0.92027211  0.25925431     0.12500
C549        C  0.38598021  0.08626243  0.69397823     0.18800
C550        C  0.40657748  0.09237477  0.71504434    -0.10300
C551        C  0.40725649  0.10682711  0.75611902    -0.11200
C552        C  0.38733930  0.11523625  0.77632262     0.20400
C553        C  0.36675211  0.10927489  0.75496914    -0.13200
C554        C  0.36607363  0.09481965  0.71389097    -0.11500
C555        C  0.38798753  0.12913433  0.82022721     0.01300
C556        C  0.38873071  0.13972740  0.85849140    -0.31500
C557        C  0.38524093  0.07072084  0.65293208     0.02700
C558        C  0.38455210  0.05711290  0.61967258    -0.33200
H559        H  0.42206603  0.08579162  0.70006224     0.13700
H560        H  0.42326386  0.11121365  0.77248611     0.13600
H561        H  0.35124189  0.11556708  0.77044001     0.13400
H562        H  0.35004851  0.09013573  0.69801214     0.12500
C563        C  0.37237867  0.08686053  0.28974883     0.18800
C564        C  0.38125348  0.10856921  0.29517554    -0.10300
C565        C  0.38203892  0.12313644  0.25435026    -0.11200
C566        C  0.37393492  0.11604688  0.20795793     0.20400
C567        C  0.36463903  0.09451048  0.20283622    -0.13200
C568        C  0.36386359  0.07995748  0.24360829    -0.11500
C569        C  0.37644575  0.13016505  0.16483413     0.01300
C570        C  0.37955582  0.14062780  0.12705818    -0.31500
C571        C  0.37293967  0.07129275  0.33070751     0.02700
C572        C  0.37404613  0.05761507  0.36371333    -0.33200
H573        H  0.38795242  0.11405626  0.33064076     0.13700
H574        H  0.38938236  0.13970101  0.25868730     0.13600
H575        H  0.35844224  0.08880067  0.16708868     0.13400
H576        H  0.35703590  0.06318945  0.23892668     0.12500
loop_ 
_geom_bond_atom_site_label_1 
_geom_bond_atom_site_label_2 
_geom_bond_distance 
_geom_bond_site_symmetry_2 
_ccdc_geom_bond_type 
N1            C6   1.354   1_565  A
N1            C5   1.353       .  A
N1           H33   1.037       .  S
N2            C9   1.351       .  A
N2           C10   1.351       .  A
N3            C8   1.353   1_565  A
N3            C7   1.354       .  A
N3           H34   1.037       .  S
N4           C11   1.351       .  A
N4           C12   1.351       .  A
C5           C13   1.387       .  A
C5           C21   1.413       .  A
C6           C22   1.414       .  A
C6           C14   1.388       .  A
C7           C15   1.387       .  A
C7           C24   1.414       .  A
C8           C23   1.415       .  A
C8           C16   1.388       .  A
C9           C21   1.411       .  A
C9           C17   1.387       .  A
C10          C24   1.410       .  A
C10          C18   1.386       .  A
C11          C19   1.386       .  A
C11          C22   1.411       .  A
C12          C20   1.387       .  A
C12          C23   1.412       .  A
C13          C14   1.376   1_565  A
C13          H25   1.082       .  S
C14          H26   1.082       .  S
C15          C16   1.376   1_565  A
C15          H27   1.082       .  S
C16          H28   1.082       .  S
C17          C18   1.373       .  A
C17          H29   1.082       .  S
C18          H30   1.082       .  S
C19          C20   1.374       .  A
C19          H31   1.082       .  S
C20          H32   1.082       .  S
C21         C544   1.450       .  S
C22         C572   1.451       .  S
C23         C558   1.450       .  S
C24         C530   1.450       .  S
In35         O37   2.255   1_556  S
In35         O38   2.248   1_556  S
In35         O46   2.250       .  S
In35         O40   2.245   1_556  S
In35         O42   2.254       .  S
In35         O43   2.243       .  S
In35         O44   2.247       .  S
In35         O47   2.256       .  S
C36         C514   1.436       .  S
C36          O42   1.259       .  A
C36          O44   1.258       .  A
O37          C45   1.258       .  A
O38          C45   1.258       .  A
C39         C502   1.434       .  S
C39          O46   1.259       .  A
C39          O40   1.258   1_556  A
C41         C556   1.436       .  S
C41          O43   1.258       .  A
C41          O47   1.260       .  A
C45         C570   1.435       .  S
In48         O50   2.253       .  S
In48         O51   2.242       .  S
In48         O59   2.249       .  S
In48         O53   2.255   1_556  S
In48         O55   2.256       .  S
In48         O56   2.250   1_556  S
In48         O57   2.245       .  S
In48         O60   2.256   1_556  S
C49         C486   1.435       .  S
C49          O55   1.259       .  A
C49          O57   1.258       .  A
O50          C58   1.260       .  A
O51          C58   1.259       .  A
C52         C472   1.436       .  S
C52          O59   1.258       .  A
C52          O53   1.259   1_556  A
C54         C542   1.437       .  S
C54          O56   1.258       .  A
C54          O60   1.259       .  A
C58         C528   1.435       .  S
N61          C66   1.354       .  A
N61          C65   1.352   1_545  A
N61          H93   1.036       .  S
N62          C69   1.350       .  A
N62          C70   1.351       .  A
N63          C68   1.353       .  A
N63          C67   1.354   1_545  A
N63          H94   1.036       .  S
N64          C71   1.351       .  A
N64          C72   1.350       .  A
C65          C73   1.388       .  A
C65          C81   1.413       .  A
C66          C82   1.413       .  A
C66          C74   1.387       .  A
C67          C75   1.387       .  A
C67          C84   1.414       .  A
C68          C83   1.414       .  A
C68          C76   1.388       .  A
C69          C81   1.411       .  A
C69          C77   1.387       .  A
C70          C84   1.411       .  A
C70          C78   1.387       .  A
C71          C79   1.386       .  A
C71          C82   1.411       .  A
C72          C80   1.387       .  A
C72          C83   1.411       .  A
C73          C74   1.374   1_565  A
C73          H85   1.082       .  S
C74          H86   1.083       .  S
C75          C76   1.375   1_565  A
C75          H87   1.083       .  S
C76          H88   1.082       .  S
C77          C78   1.373       .  A
C77          H89   1.082       .  S
C78          H90   1.082       .  S
C79          C80   1.374       .  A
C79          H91   1.082       .  S
C80          H92   1.082       .  S
C81         C416   1.446       .  S
C82         C458   1.450       .  S
C83         C444   1.447       .  S
C84         C430   1.450       .  S
In95         O97   2.250   1_554  S
In95         O98   2.237   1_554  S
In95        O106   2.247   1_554  S
In95        O100   2.254       .  S
In95        O102   2.255   1_554  S
In95        O103   2.239       .  S
In95        O104   2.248       .  S
In95        O107   2.251       .  S
C96         C516   1.437       .  S
C96         O102   1.260       .  A
C96         O104   1.258   1_556  A
O97         C105   1.259       .  A
O98         C105   1.258       .  A
C99         C402   1.437       .  S
C99         O106   1.258   1_554  A
C99         O100   1.259       .  A
C101        C460   1.433       .  S
C101        O103   1.258       .  A
C101        O107   1.259       .  A
C105        C446   1.431       .  S
In108       O110   2.254       .  S
In108       O111   2.239       .  S
In108       O119   2.252       .  S
In108       O113   2.250       .  S
In108       O115   2.252   1_554  S
In108       O116   2.244   1_554  S
In108       O117   2.244       .  S
In108       O120   2.255   1_554  S
C109        C488   1.434       .  S
C109        O115   1.259   1_554  A
C109        O117   1.258       .  A
O110        C118   1.260       .  A
O111        C118   1.257       .  A
C112        C388   1.435       .  S
C112        O119   1.258       .  A
C112        O113   1.257       .  A
C114        C432   1.434       .  S
C114        O116   1.257       .  A
C114        O120   1.258       .  A
C118        C418   1.433       .  S
N121        C126   1.354       .  A
N121        C125   1.353       .  A
N121        H153   1.036       .  S
N122        C129   1.351       .  A
N122        C130   1.351       .  A
N123        C128   1.353       .  A
N123        C127   1.354       .  A
N123        H154   1.036       .  S
N124        C131   1.351       .  A
N124        C132   1.351       .  A
C125        C133   1.388       .  A
C125        C141   1.414       .  A
C126        C142   1.415   1_455  A
C126        C134   1.387       .  A
C127        C135   1.387       .  A
C127        C144   1.414       .  A
C128        C143   1.414   1_455  A
C128        C136   1.388       .  A
C129        C141   1.411       .  A
C129        C137   1.387       .  A
C130        C144   1.411       .  A
C130        C138   1.387       .  A
C131        C139   1.387       .  A
C131        C142   1.412       .  A
C132        C140   1.387       .  A
C132        C143   1.412       .  A
C133        C134   1.375       .  A
C133        H145   1.082       .  S
C134        H146   1.082       .  S
C135        C136   1.375       .  A
C135        H147   1.082       .  S
C136        H148   1.082       .  S
C137        C138   1.374       .  A
C137        H149   1.082       .  S
C138        H150   1.083       .  S
C139        C140   1.374       .  A
C139        H151   1.082       .  S
C140        H152   1.082       .  S
C141        C362   1.449       .  S
C142        C346   1.452       .  S
C143        C332   1.449       .  S
C144        C376   1.451       .  S
In155       O157   2.257   1_554  S
In155       O158   2.245   1_554  S
In155       O166   2.243       .  S
In155       O160   2.247       .  S
In155       O162   2.251   1_554  S
In155       O163   2.246       .  S
In155       O164   2.248       .  S
In155       O167   2.256       .  S
C156        C318   1.435       .  S
C156        O162   1.259   1_554  A
C156        O164   1.258       .  A
O157        C165   1.259       .  A
O158        C165   1.258       .  A
C159        C500   1.433       .  S
C159        O166   1.258       .  A
C159        O160   1.258       .  A
C161        C374   1.436       .  S
C161        O163   1.258       .  A
C161        O167   1.259       .  A
C165        C360   1.436       .  S
In168       O170   2.256       .  S
In168       O171   2.245       .  S
In168       O179   2.253   1_554  S
In168       O173   2.255       .  S
In168       O175   2.255   1_554  S
In168       O176   2.252   1_554  S
In168       O177   2.248       .  S
In168       O180   2.256   1_554  S
C169        C304   1.435       .  S
C169        O175   1.259   1_554  A
C169        O177   1.258       .  A
O170        C178   1.259       .  A
O171        C178   1.258       .  A
C172        C404   1.437       .  S
C172        O179   1.258   1_554  A
C172        O173   1.258       .  A
C174        C348   1.438       .  S
C174        O176   1.259       .  A
C174        O180   1.259       .  A
C178        C334   1.435       .  S
N181        C186   1.353       .  A
N181        C185   1.354       .  A
N181        H213   1.037       .  S
N182        C189   1.351       .  A
N182        C190   1.351       .  A
N183        C188   1.354       .  A
N183        C187   1.354       .  A
N183        H214   1.037       .  S
N184        C191   1.351       .  A
N184        C192   1.351       .  A
C185        C193   1.388       .  A
C185        C201   1.414   1_455  A
C186        C202   1.414       .  A
C186        C194   1.388       .  A
C187        C195   1.387       .  A
C187        C204   1.416   1_455  A
C188        C203   1.416       .  A
C188        C196   1.388       .  A
C189        C201   1.412       .  A
C189        C197   1.387       .  A
C190        C204   1.412       .  A
C190        C198   1.387       .  A
C191        C199   1.387       .  A
C191        C202   1.411       .  A
C192        C200   1.387       .  A
C192        C203   1.411       .  A
C193        C194   1.375       .  A
C193        H205   1.082       .  S
C194        H206   1.082       .  S
C195        C196   1.375       .  A
C195        H207   1.082       .  S
C196        H208   1.082       .  S
C197        C198   1.374       .  A
C197        H209   1.082       .  S
C198        H210   1.082       .  S
C199        C200   1.373       .  A
C199        H211   1.083       .  S
C200        H212   1.082       .  S
C201        C264   1.450       .  S
C202        C292   1.448       .  S
C203        C276   1.451       .  S
C204        C248   1.452       .  S
In215       O217   2.252   1_556  S
In215       O218   2.246   1_556  S
In215       O226   2.252   1_556  S
In215       O220   2.249       .  S
In215       O222   2.254   1_556  S
In215       O223   2.249       .  S
In215       O224   2.248       .  S
In215       O227   2.253       .  S
C216        C320   1.436       .  S
C216        O222   1.258   1_556  A
C216        O224   1.258       .  A
O217        C225   1.259       .  A
O218        C225   1.258       .  A
C219        C474   1.436       .  S
C219        O226   1.258   1_556  A
C219        O220   1.258       .  A
C221        C278   1.437       .  S
C221        O223   1.259       .  A
C221        O227   1.259       .  A
C225        C290   1.434       .  S
In228       O230   2.254       .  S
In228       O231   2.241       .  S
In228       O239   2.247   1_556  S
In228       O233   2.249       .  S
In228       O235   2.259   1_556  S
In228       O236   2.240   1_556  S
In228       O237   2.244       .  S
In228       O240   2.252   1_556  S
C229        C306   1.435       .  S
C229        O235   1.259   1_556  A
C229        O237   1.257       .  A
O230        C238   1.260       .  A
O231        C238   1.258       .  A
C232        C390   1.435       .  S
C232        O239   1.258   1_556  A
C232        O233   1.259       .  A
C234        C262   1.435       .  S
C234        O236   1.259       .  A
C234        O240   1.260       .  A
C238        C250   1.435       .  S
C241        C242   1.402       .  A
C241        C246   1.401       .  A
C241        C249   1.441       .  S
C242        C243   1.400       .  A
C242        H251   1.084       .  S
C243        C244   1.402       .  A
C243        H252   1.083       .  S
C244        C245   1.401       .  A
C244        C247   1.442       .  S
C245        C246   1.399       .  A
C245        H253   1.083       .  S
C246        H254   1.083       .  S
C247        C248   1.208       .  T
C249        C250   1.206       .  T
C255        C256   1.401       .  A
C255        C260   1.402       .  A
C255        C263   1.440       .  S
C256        C257   1.399       .  A
C256        H265   1.083       .  S
C257        C258   1.401       .  A
C257        H266   1.084       .  S
C258        C259   1.401       .  A
C258        C261   1.440       .  S
C259        C260   1.399       .  A
C259        H267   1.083       .  S
C260        H268   1.083       .  S
C261        C262   1.206       .  T
C263        C264   1.206       .  T
C269        C270   1.401       .  A
C269        C274   1.402       .  A
C269        C277   1.442       .  S
C270        C271   1.399       .  A
C270        H279   1.083       .  S
C271        C272   1.401       .  A
C271        H280   1.084       .  S
C272        C273   1.402       .  A
C272        C275   1.441       .  S
C273        C274   1.400       .  A
C273        H281   1.083       .  S
C274        H282   1.083       .  S
C275        C276   1.207       .  T
C277        C278   1.207       .  T
C283        C284   1.401       .  A
C283        C288   1.400       .  A
C283        C291   1.437       .  S
C284        C285   1.399       .  A
C284        H293   1.083       .  S
C285        C286   1.402       .  A
C285        H294   1.083       .  S
C286        C287   1.401       .  A
C286        C289   1.439       .  S
C287        C288   1.398       .  A
C287        H295   1.083       .  S
C288        H296   1.084       .  S
C289        C290   1.205       .  T
C291        C292   1.205       .  T
C297        C298   1.401       .  A
C297        C302   1.401   1_554  A
C297        C305   1.440       .  S
C298        C299   1.399       .  A
C298        H307   1.084       .  S
C299        C300   1.401       .  A
C299        H308   1.083       .  S
C300        C301   1.401   1_554  A
C300        C303   1.440       .  S
C301        C302   1.399       .  A
C301        H309   1.083       .  S
C302        H310   1.083       .  S
C303        C304   1.206       .  T
C305        C306   1.206   1_554  T
C311        C312   1.401   1_554  A
C311        C316   1.402       .  A
C311        C319   1.441       .  S
C312        C313   1.399       .  A
C312        H321   1.083       .  S
C313        C314   1.401   1_556  A
C313        H322   1.083       .  S
C314        C315   1.402       .  A
C314        C317   1.440       .  S
C315        C316   1.400       .  A
C315        H323   1.083       .  S
C316        H324   1.083       .  S
C317        C318   1.206       .  T
C319        C320   1.206   1_554  T
C325        C326   1.401       .  A
C325        C330   1.401       .  A
C325        C333   1.439       .  S
C326        C327   1.398       .  A
C326        H335   1.084       .  S
C327        C328   1.401       .  A
C327        H336   1.084       .  S
C328        C329   1.401       .  A
C328        C331   1.438       .  S
C329        C330   1.399       .  A
C329        H337   1.083       .  S
C330        H338   1.083       .  S
C331        C332   1.205       .  T
C333        C334   1.206       .  T
C339        C340   1.402       .  A
C339        C344   1.402       .  A
C339        C347   1.443       .  S
C340        C341   1.400       .  A
C340        H349   1.083       .  S
C341        C342   1.401       .  A
C341        H350   1.083       .  S
C342        C343   1.402       .  A
C342        C345   1.442       .  S
C343        C344   1.400       .  A
C343        H351   1.084       .  S
C344        H352   1.083       .  S
C345        C346   1.207       .  T
C347        C348   1.208       .  T
C353        C354   1.401       .  A
C353        C358   1.401       .  A
C353        C361   1.439       .  S
C354        C355   1.400       .  A
C354        H363   1.083       .  S
C355        C356   1.402       .  A
C355        H364   1.083       .  S
C356        C357   1.401       .  A
C356        C359   1.440       .  S
C357        C358   1.398       .  A
C357        H365   1.084       .  S
C358        H366   1.084       .  S
C359        C360   1.206       .  T
C361        C362   1.206       .  T
C367        C368   1.402       .  A
C367        C372   1.401       .  A
C367        C375   1.440       .  S
C368        C369   1.400       .  A
C368        H377   1.083       .  S
C369        C370   1.402       .  A
C369        H378   1.083       .  S
C370        C371   1.402       .  A
C370        C373   1.441       .  S
C371        C372   1.399       .  A
C371        H379   1.083       .  S
C372        H380   1.084       .  S
C373        C374   1.206       .  T
C375        C376   1.206       .  T
C381        C382   1.401   1_556  A
C381        C386   1.401       .  A
C381        C389   1.439       .  S
C382        C383   1.399       .  A
C382        H391   1.083       .  S
C383        C384   1.401   1_554  A
C383        H392   1.083       .  S
C384        C385   1.401       .  A
C384        C387   1.440   1_556  S
C385        C386   1.399       .  A
C385        H393   1.083       .  S
C386        H394   1.083       .  S
C387        C388   1.206       .  T
C389        C390   1.206       .  T
C395        C396   1.401   1_554  A
C395        C400   1.402       .  A
C395        C403   1.442       .  S
C396        C397   1.399       .  A
C396        H405   1.083       .  S
C397        C398   1.401   1_556  A
C397        H406   1.083       .  S
C398        C399   1.402       .  A
C398        C401   1.442       .  S
C399        C400   1.400       .  A
C399        H407   1.083       .  S
C400        H408   1.083       .  S
C401        C402   1.207       .  T
C403        C404   1.207       .  T
C409        C410   1.401       .  A
C409        C414   1.401       .  A
C409        C417   1.438       .  S
C410        C411   1.398       .  A
C410        H419   1.083       .  S
C411        C412   1.401       .  A
C411        H420   1.083       .  S
C412        C413   1.400       .  A
C412        C415   1.436       .  S
C413        C414   1.397       .  A
C413        H421   1.084       .  S
C414        H422   1.084       .  S
C415        C416   1.204       .  T
C417        C418   1.205       .  T
C423        C424   1.401       .  A
C423        C428   1.401       .  A
C423        C431   1.439       .  S
C424        C425   1.398       .  A
C424        H433   1.084       .  S
C425        C426   1.401       .  A
C425        H434   1.084       .  S
C426        C427   1.402       .  A
C426        C429   1.439       .  S
C427        C428   1.400       .  A
C427        H435   1.083       .  S
C428        H436   1.083       .  S
C429        C430   1.206       .  T
C431        C432   1.205       .  T
C437        C438   1.401       .  A
C437        C442   1.400       .  A
C437        C445   1.436       .  S
C438        C439   1.398       .  A
C438        H447   1.083       .  S
C439        C440   1.401       .  A
C439        H448   1.083       .  S
C440        C441   1.400       .  A
C440        C443   1.436       .  S
C441        C442   1.397       .  A
C441        H449   1.084       .  S
C442        H450   1.084       .  S
C443        C444   1.204       .  T
C445        C446   1.204       .  T
C451        C452   1.401       .  A
C451        C456   1.401       .  A
C451        C459   1.439       .  S
C452        C453   1.398       .  A
C452        H461   1.084       .  S
C453        C454   1.401       .  A
C453        H462   1.084       .  S
C454        C455   1.401       .  A
C454        C457   1.440       .  S
C455        C456   1.399       .  A
C455        H463   1.083       .  S
C456        H464   1.083       .  S
C457        C458   1.206       .  T
C459        C460   1.205       .  T
C465        C466   1.401       .  A
C465        C470   1.402   1_556  A
C465        C473   1.440       .  S
C466        C467   1.399       .  A
C466        H475   1.083       .  S
C467        C468   1.402       .  A
C467        H476   1.083       .  S
C468        C469   1.402   1_556  A
C468        C471   1.441       .  S
C469        C470   1.399       .  A
C469        H477   1.083       .  S
C470        H478   1.083       .  S
C471        C472   1.207       .  T
C473        C474   1.206       .  T
C479        C480   1.401   1_556  A
C479        C484   1.401       .  A
C479        C487   1.439   1_556  S
C480        C481   1.399       .  A
C480        H489   1.084       .  S
C481        C482   1.401   1_554  A
C481        H490   1.083       .  S
C482        C483   1.401       .  A
C482        C485   1.440       .  S
C483        C484   1.399       .  A
C483        H491   1.083       .  S
C484        H492   1.083       .  S
C485        C486   1.206       .  T
C487        C488   1.205       .  T
C493        C494   1.401   1_554  A
C493        C498   1.401       .  A
C493        C501   1.439   1_554  S
C494        C495   1.399       .  A
C494        H503   1.083       .  S
C495        C496   1.401   1_556  A
C495        H504   1.083       .  S
C496        C497   1.401       .  A
C496        C499   1.438       .  S
C497        C498   1.398       .  A
C497        H505   1.084       .  S
C498        H506   1.083       .  S
C499        C500   1.204       .  T
C501        C502   1.205       .  T
C507        C508   1.401       .  A
C507        C512   1.402   1_556  A
C507        C515   1.441       .  S
C508        C509   1.399       .  A
C508        H517   1.083       .  S
C509        C510   1.401       .  A
C509        H518   1.083       .  S
C510        C511   1.402   1_556  A
C510        C513   1.441       .  S
C511        C512   1.400       .  A
C511        H519   1.083       .  S
C512        H520   1.083       .  S
C513        C514   1.207       .  T
C515        C516   1.207       .  T
C521        C522   1.401       .  A
C521        C526   1.402       .  A
C521        C529   1.439       .  S
C522        C523   1.398       .  A
C522        H531   1.084       .  S
C523        C524   1.401       .  A
C523        H532   1.083       .  S
C524        C525   1.402       .  A
C524        C527   1.439       .  S
C525        C526   1.400       .  A
C525        H533   1.083       .  S
C526        H534   1.083       .  S
C527        C528   1.206       .  T
C529        C530   1.206       .  T
C535        C536   1.401       .  A
C535        C540   1.401       .  A
C535        C543   1.439       .  S
C536        C537   1.399       .  A
C536        H545   1.084       .  S
C537        C538   1.401       .  A
C537        H546   1.083       .  S
C538        C539   1.402       .  A
C538        C541   1.441       .  S
C539        C540   1.400       .  A
C539        H547   1.083       .  S
C540        H548   1.083       .  S
C541        C542   1.207       .  T
C543        C544   1.206       .  T
C549        C550   1.401       .  A
C549        C554   1.401       .  A
C549        C557   1.439       .  S
C550        C551   1.399       .  A
C550        H559   1.083       .  S
C551        C552   1.402       .  A
C551        H560   1.083       .  S
C552        C553   1.401       .  A
C552        C555   1.441       .  S
C553        C554   1.399       .  A
C553        H561   1.083       .  S
C554        H562   1.083       .  S
C555        C556   1.206       .  T
C557        C558   1.206       .  T
C563        C564   1.402       .  A
C563        C568   1.401       .  A
C563        C571   1.440       .  S
C564        C565   1.400       .  A
C564        H573   1.083       .  S
C565        C566   1.402       .  A
C565        H574   1.083       .  S
C566        C567   1.401       .  A
C566        C569   1.440       .  S
C567        C568   1.398       .  A
C567        H575   1.084       .  S
C568        H576   1.084       .  S
C569        C570   1.206       .  T
C571        C572   1.207       .  T
