geometry optimzed in LAMMPS
_audit_creation_date              2020-11-30 
_audit_creation_method            'lammps2cif' 
_symmetry_space_group_name_H-M    'P1' 
_symmetry_Int_Tables_number       1 
_symmetry_cell_setting            triclinic 
loop_ 
_symmetry_equiv_pos_as_xyz 
  x,y,z 
_cell_length_a                    40.75052666 
_cell_length_b                    40.570606585727774 
_cell_length_c                    103.79316345715692 
_cell_angle_alpha                 90.20790769266814 
_cell_angle_beta                  89.81123328490722 
_cell_angle_gamma                 120.63587530976967 
loop_ 
_atom_site_label 
_atom_site_type_symbol 
_atom_site_fract_x 
_atom_site_fract_y 
_atom_site_fract_z 
_atom_site_charge 
In1        In  0.53646270  0.54351302  0.05368859     1.36900
C2          C  0.48248247  0.50369598  0.07098165     0.78200
O3          O  0.53804980  0.49102067  0.04835604    -0.60300
O4          O  0.57870667  0.54342306  0.03951850    -0.51200
C5          C  0.50798359  0.57062147  0.03638333     0.70800
O6          O  0.48990561  0.53686491  0.04056234    -0.46000
C7          C  0.58915793  0.58428203  0.07125683     0.75500
O8          O  0.48731929  0.48824124  0.06116391    -0.57900
O9          O  0.58632684  0.55512662  0.06584181    -0.48000
O10         O  0.50375309  0.53947988  0.07157092    -0.54300
C11         C  0.56635276  0.50807933  0.04092829     0.85700
O12         O  0.54125041  0.59063222  0.04080527    -0.56200
O13         O  0.56703168  0.59478462  0.06693574    -0.59500
In14       In  0.04589495  0.52541517  0.05482907     1.36900
C15         C  0.04910646  0.47713708  0.07150969     0.78200
O16         O  0.08324544  0.51941080  0.03968071    -0.60300
O17         O  0.09376443  0.57472315  0.04427945    -0.51200
C18         C  0.97758323  0.49344418  0.04348728     0.70800
O19         O  0.98496049  0.47806320  0.05267492    -0.46000
C20         C  0.04571640  0.57406886  0.07207319     0.75500
O21         O  0.07016476  0.51288500  0.07227363    -0.57900
O22         O  0.07284657  0.56805157  0.07074073    -0.48000
O23         O  0.02860476  0.46554832  0.06154410    -0.54300
C24         C  0.10388221  0.55500533  0.03792508     0.85700
O25         O  0.00541071  0.52515881  0.03985489    -0.56200
O26         O  0.01911896  0.55694237  0.06403374    -0.59500
In27       In  0.49804130  0.01166756  0.05368306     1.36900
C28         C  0.43709245  0.99487220  0.06798838     0.78200
O29         O  0.46108349  0.97450889  0.03714456    -0.60300
O30         O  0.50403892  0.96483606  0.04422018    -0.51200
C31         C  0.53646358  0.07932842  0.04158412     0.70800
O32         O  0.50612092  0.06880023  0.04782873    -0.46000
C33         C  0.54446025  0.02288952  0.07337354     0.75500
O34         O  0.44701216  0.01723356  0.05849725    -0.57900
O35         O  0.54189805  0.04949369  0.06821910    -0.48000
O36         O  0.45685470  0.97958962  0.06967781    -0.54300
C37         C  0.47652564  0.95438118  0.03659116     0.85700
O38         O  0.54639341  0.05448248  0.04096372    -0.56200
O39         O  0.52471786  0.99063179  0.06808357    -0.59500
C40         C  0.36661406  0.68842062  0.96849136     0.46100
H41         H  0.36698216  0.68785493  0.95779926    -0.03000
C42         C  0.36550433  0.68962524  0.99367270     0.46100
H43         H  0.36499427  0.68998241  0.00438044    -0.03000
C44         C  0.32600006  0.66654637  0.97438002    -0.16700
C45         C  0.38825492  0.67058005  0.97486531    -0.16400
C46         C  0.38495342  0.72924057  0.97432109    -0.16800
C47         C  0.32577619  0.66717305  0.98761161    -0.16800
C48         C  0.38736507  0.67137933  0.98808862    -0.16300
C49         C  0.38393546  0.72952584  0.98759498    -0.16700
C50         C  0.36185843  0.35139165  0.16595379     0.80800
N51         N  0.34370382  0.31301367  0.16399402    -0.77500
C52         C  0.33568907  0.29816839  0.15195072     0.83300
N53         N  0.34638645  0.32195419  0.14170711    -0.77400
C54         C  0.36448234  0.36047172  0.14346182     0.83400
N55         N  0.37207776  0.37536440  0.15564026    -0.79100
C56         C  0.29524024  0.00830630  0.13477869     0.80800
N57         N  0.28797151  0.03741051  0.13372205    -0.77500
C58         C  0.27682210  0.04927920  0.14420473     0.83300
N59         N  0.27318707  0.03213210  0.15567569    -0.77400
C60         C  0.28047248  0.00328748  0.15686446     0.83400
N61         N  0.29187648  0.99143956  0.14641704    -0.79100
C62         C  0.99849865  0.62960910  0.15300646     0.80800
N63         N  0.96075746  0.61529487  0.15511114    -0.77500
C64         C  0.94740049  0.61364399  0.16719415     0.83300
N65         N  0.97204415  0.62691885  0.17721099    -0.77400
C66         C  0.00986431  0.64130176  0.17526161     0.83400
N67         N  0.02323733  0.64273130  0.16310978    -0.79100
C68         C  0.69943456  0.65266474  0.17494487     0.80800
N69         N  0.72016038  0.63548838  0.17704197    -0.77500
C70         C  0.72641814  0.61699123  0.16732888     0.83300
N71         N  0.71193638  0.61575879  0.15552532    -0.77400
C72         C  0.69137168  0.63281366  0.15324384     0.83400
N73         N  0.68533203  0.65176353  0.16295547    -0.79100
In74       In  0.69444760  0.86154157  0.25545519     1.36900
C75         C  0.69973305  0.81438046  0.23883850     0.78200
O76         O  0.63677436  0.81363082  0.26164350    -0.60300
O77         O  0.66004518  0.86615530  0.27181851    -0.51200
C78         C  0.76145786  0.89470856  0.26801037     0.70800
O79         O  0.75722127  0.90672691  0.25734290    -0.46000
C80         C  0.68099657  0.90590904  0.24049114     0.75500
O81         O  0.69594411  0.80750159  0.25076095    -0.57900
O82         O  0.66003528  0.87004324  0.24055313    -0.48000
O83         O  0.70300037  0.84576123  0.23573156    -0.54300
C84         C  0.63217281  0.83257448  0.27034481     0.85700
O85         O  0.73158959  0.86587925  0.27224133    -0.56200
O86         O  0.70735727  0.91946376  0.24877271    -0.59500
In87       In  0.22605379  0.36881681  0.25794795     1.36900
C88         C  0.17608574  0.35971318  0.23947678     0.78200
O89         O  0.23024766  0.42377873  0.26452483    -0.60300
O90         O  0.26532644  0.40678390  0.27397841    -0.51200
C91         C  0.18803957  0.30268070  0.27150407     0.70800
O92         O  0.19295795  0.33410316  0.27565368    -0.46000
C93         C  0.28726312  0.38453094  0.24393029     0.75500
O94         O  0.17396172  0.37017739  0.25076222    -0.57900
O95         O  0.27251913  0.35704057  0.25182219    -0.48000
O96         O  0.20265758  0.35305220  0.23783950    -0.54300
C97         C  0.25539628  0.43154141  0.27296018     0.85700
O98         O  0.20305287  0.30522063  0.26067707    -0.56200
O99         O  0.27290246  0.40561756  0.24412232    -0.59500
In100      In  0.20101630  0.85300097  0.25755838     1.36900
C101        C  0.15904807  0.79442189  0.24197771     0.78200
O102        O  0.19974457  0.89009204  0.27356456    -0.60300
O103        O  0.15065823  0.86037111  0.26175980    -0.51200
C104        C  0.23416953  0.82816135  0.27374679     0.70800
O105        O  0.20164046  0.80679571  0.26899419    -0.46000
C106        C  0.24003912  0.90281026  0.23910145     0.75500
O107        O  0.14535444  0.80038076  0.25207446    -0.57900
O108        O  0.21334243  0.90288212  0.24518398    -0.48000
O109        O  0.19389776  0.81768356  0.24011446    -0.54300
C110        C  0.16677040  0.88367232  0.27090817     0.85700
O111        O  0.24937428  0.86306502  0.27079020    -0.56200
O112        O  0.24959933  0.87986811  0.24331085    -0.59500
C113        C  0.36814810  0.69819307  0.31482014     0.46100
H114        H  0.36661156  0.69711942  0.30413061    -0.03000
C115        C  0.37185030  0.70170141  0.33992516     0.46100
H116        H  0.37304650  0.70289095  0.35061449    -0.03000
C117        C  0.40913806  0.72068678  0.31995597    -0.16700
C118        C  0.34825782  0.71799551  0.32094150    -0.16400
C119        C  0.35022156  0.65869615  0.32121995    -0.16800
C120        C  0.41133590  0.72272877  0.33320486    -0.16800
C121        C  0.35010636  0.72001657  0.33414247    -0.16300
C122        C  0.35138248  0.66024296  0.33445121    -0.16700
C123        C  0.01947142  0.34298798  0.17107152     0.80800
N124        N  0.03135864  0.35772239  0.15901654    -0.77500
C125        C  0.00518926  0.35392880  0.15004292     0.83300
N126        N  0.96759115  0.33527854  0.15317106    -0.77400
C127        C  0.95584901  0.32092704  0.16516221     0.83400
N128        N  0.98184948  0.32493410  0.17405937    -0.79100
C129        C  0.68427365  0.05428061  0.17213405     0.80800
N130        N  0.66445771  0.04357418  0.16082184    -0.77500
C131        C  0.67085224  0.07113124  0.15197083     0.83300
N132        N  0.69682690  0.10849093  0.15448440    -0.77400
C133        C  0.71644234  0.11873952  0.16566993     0.83400
N134        N  0.71012729  0.09159470  0.17434839    -0.79100
In135      In  0.87197036  0.70005962  0.58902382     1.36900
C136        C  0.82080961  0.69936031  0.57287616     0.78200
O137        O  0.87370872  0.75327587  0.59649123    -0.60300
O138        O  0.91240123  0.73921687  0.60461721    -0.51200
C139        C  0.83436271  0.63327525  0.60146474     0.70800
O140        O  0.84403199  0.63555070  0.58978771    -0.46000
C141        C  0.92860768  0.70368001  0.57467197     0.75500
O142        O  0.85609975  0.71764210  0.57081971    -0.57900
O143        O  0.91317779  0.72311253  0.57251223    -0.48000
O144        O  0.81095435  0.68031330  0.58318188    -0.54300
C145        C  0.90050336  0.76242566  0.60428658     0.85700
O146        O  0.84367397  0.66500123  0.60670369    -0.56200
O147        O  0.91616929  0.68288420  0.58455817    -0.59500
In148      In  0.86931739  0.20119638  0.59073926     1.36900
C149        C  0.93121390  0.24182273  0.57645199     0.78200
O150        O  0.90730832  0.20103483  0.60636314    -0.60300
O151        O  0.86341292  0.14731991  0.59932652    -0.51200
C152        C  0.83485095  0.23006996  0.60475440     0.70800
O153        O  0.86284673  0.25017055  0.59747019    -0.46000
C154        C  0.82237456  0.17299540  0.57073102     0.75500
O155        O  0.92411699  0.25570380  0.58623784    -0.57900
O156        O  0.83448932  0.15392815  0.57649440    -0.48000
O157        O  0.90791133  0.20697492  0.57443012    -0.54300
C158        C  0.89198920  0.16511011  0.60661848     0.85700
O159        O  0.82501091  0.19507635  0.60526010    -0.56200
O160        O  0.83160247  0.20469782  0.57585363    -0.59500
In161      In  0.36011623  0.20738316  0.59121756     1.36900
C162        C  0.37749184  0.17731788  0.57143749     0.78200
O163        O  0.31201999  0.15444473  0.60048560    -0.60300
O164        O  0.32242452  0.20880378  0.60678390    -0.51200
C165        C  0.42455939  0.23637357  0.60485890     0.70800
O166        O  0.39905095  0.20135269  0.60541165    -0.46000
C167        C  0.33842971  0.24733034  0.57683839     0.75500
O168        O  0.40000044  0.20985300  0.57606632    -0.57900
O169        O  0.32482111  0.21186726  0.57559801    -0.48000
O170        O  0.34649219  0.15828837  0.57751225    -0.54300
C171        C  0.30142622  0.17288732  0.60745571     0.85700
O172        O  0.41624670  0.25638380  0.59784336    -0.56200
O173        O  0.36241619  0.26261308  0.58581577    -0.59500
C174        C  0.02800621  0.03272105  0.64555052     0.46100
H175        H  0.02804565  0.03316970  0.63484638    -0.03000
C176        C  0.02870304  0.03249533  0.67068215     0.46100
H177        H  0.02836000  0.03164776  0.68136525    -0.03000
C178        C  0.06839469  0.05274648  0.65141168    -0.16700
C179        C  0.00860201  0.05298114  0.65173508    -0.16400
C180        C  0.00758429  0.99217262  0.65134488    -0.16800
C181        C  0.06899858  0.05241114  0.66466013    -0.16800
C182        C  0.00849132  0.05267555  0.66499583    -0.16300
C183        C  0.00806626  0.99223848  0.66457231    -0.16700
C184        C  0.42852936  0.14559025  0.48655747     0.80800
N185        N  0.40048341  0.12257378  0.47811826    -0.77500
C186        C  0.40997275  0.11825832  0.46588386     0.83300
N187        N  0.44712554  0.13585891  0.46233841    -0.77400
C188        C  0.47503922  0.15832853  0.47070396     0.83400
N189        N  0.46564995  0.16319815  0.48279333    -0.79100
C190        C  0.70853154  0.10108101  0.46724117     0.80800
N191        N  0.72423659  0.10617560  0.47920377    -0.77500
C192        C  0.72044747  0.12934552  0.48788663     0.83300
N193        N  0.70108388  0.14704316  0.48453030    -0.77400
C194        C  0.68534843  0.14187290  0.47269830     0.83400
N195        N  0.68892317  0.11873997  0.46413686    -0.79100
C196        C  0.10791980  0.41231286  0.49021132     0.80800
N197        N  0.09005253  0.38619271  0.49974390    -0.77500
C198        C  0.09283656  0.39812565  0.51215684     0.83300
N199        N  0.11349230  0.43606505  0.51497421    -0.77400
C200        C  0.13181720  0.46216012  0.50553017     0.83400
N201        N  0.12859921  0.45018951  0.49314404    -0.79100
C202        C  0.09948332  0.70625933  0.51378534     0.80800
N203        N  0.10426356  0.72367776  0.50213867    -0.77500
C204        C  0.12775862  0.72205117  0.49313790     0.83300
N205        N  0.14612078  0.70288450  0.49581444    -0.77400
C206        C  0.14141023  0.68534009  0.50732458     0.83400
N207        N  0.11787526  0.68689086  0.51627572    -0.79100
C208        C  0.64560613  0.71330222  0.48956965     0.80800
N209        N  0.60797503  0.68915989  0.49170925    -0.77500
C210        C  0.59532416  0.67177454  0.50321374     0.83300
N211        N  0.62058186  0.67824525  0.51271605    -0.77400
C212        C  0.65845165  0.70243305  0.51076366     0.83400
N213        N  0.67117644  0.72003210  0.49911525    -0.79100
C214        C  0.32202455  0.40220068  0.48841595     0.80800
N215        N  0.34663975  0.44025115  0.49001213    -0.77500
C216        C  0.36087046  0.45481270  0.50175708     0.83300
N217        N  0.35094485  0.43114952  0.51194922    -0.77400
C218        C  0.32650250  0.39299212  0.51066528     0.83400
N219        N  0.31188408  0.37811173  0.49878293    -0.79100
In220      In  0.20799575  0.87585581  0.39108592     1.36900
C221        C  0.25116465  0.93466894  0.40639485     0.78200
O222        O  0.20405771  0.92228732  0.38066435    -0.60300
O223        O  0.15988616  0.86523150  0.37737708    -0.51200
C224        C  0.24214349  0.84688714  0.37666980     0.70800
O225        O  0.26047533  0.87704020  0.38327800    -0.46000
C226        C  0.17513285  0.82679955  0.41057979     0.75500
O227        O  0.26435019  0.92688069  0.39655800    -0.57900
O228        O  0.15957058  0.84360362  0.40549395    -0.48000
O229        O  0.21586614  0.91310986  0.40816646    -0.54300
C230        C  0.17300999  0.90030096  0.37512328     0.85700
O231        O  0.20643369  0.83255146  0.37691489    -0.56200
O232        O  0.20503245  0.83257837  0.40499368    -0.59500
In233      In  0.18279331  0.35570460  0.38879288     1.36900
C234        C  0.13794712  0.35985707  0.40676014     0.78200
O235        O  0.13322375  0.30602221  0.37856032    -0.60300
O236        O  0.18882779  0.31748450  0.37421073    -0.51200
C237        C  0.21680520  0.42273664  0.37621044     0.70800
O238        O  0.23215355  0.41500655  0.38530156    -0.46000
C239        C  0.22973197  0.35167424  0.40566667     0.75500
O240        O  0.15462954  0.38546783  0.39836301    -0.57900
O241        O  0.24151341  0.37758076  0.39726002    -0.48000
O242        O  0.14157002  0.33122201  0.40526707    -0.54300
C243        C  0.15341665  0.29562397  0.37263318     0.85700
O244        O  0.18385738  0.39563483  0.37317849    -0.56200
O245        O  0.19537119  0.32593013  0.40448131    -0.59500
In246      In  0.70844543  0.88061028  0.39120566     1.36900
C247        C  0.69715565  0.82976518  0.40938685     0.78200
O248        O  0.75552879  0.87470958  0.38213161    -0.60300
O249        O  0.74909505  0.92104023  0.37620672    -0.51200
C250        C  0.64409501  0.84737366  0.37746645     0.70800
O251        O  0.64839021  0.86674567  0.38750235    -0.46000
C252        C  0.72092221  0.93990372  0.40591347     0.75500
O253        O  0.67036300  0.82753698  0.40270079    -0.57900
O254        O  0.70303821  0.93240830  0.39542542    -0.48000
O255        O  0.72987516  0.85610818  0.40613513    -0.54300
C256        C  0.76790086  0.90427734  0.37528900     0.85700
O257        O  0.67274560  0.84476811  0.37440598    -0.56200
O258        O  0.73381108  0.91844890  0.40849140    -0.59500
C259        C  0.03200394  0.02316779  0.33288817     0.46100
H260        H  0.03118573  0.02239680  0.34359222    -0.03000
C261        C  0.03390754  0.02523521  0.30777428     0.46100
H262        H  0.03478493  0.02597733  0.29709060    -0.03000
C263        C  0.05223266  0.06400410  0.32739791    -0.16700
C264        C  0.05273537  0.00396588  0.32692012    -0.16400
C265        C  0.99229682  0.00307369  0.32665061    -0.16800
C266        C  0.05369703  0.06545933  0.31413907    -0.16800
C267        C  0.05359874  0.00476913  0.31367740    -0.16300
C268        C  0.99299356  0.00419317  0.31337804    -0.16700
In269      In  0.87703294  0.69660196  0.72269197     1.36900
C270        C  0.84911212  0.71308344  0.74329617     0.78200
O271        O  0.82368407  0.64619828  0.71473681    -0.60300
O272        O  0.87647342  0.66118901  0.70582107    -0.51200
C273        C  0.90288828  0.76120773  0.70939863     0.70800
O274        O  0.92397713  0.75438945  0.71637050    -0.46000
C275        C  0.91807527  0.67387245  0.73554460     0.75500
O276        O  0.88286532  0.73395704  0.73942447    -0.57900
O277        O  0.93191580  0.69712132  0.72628680    -0.48000
O278        O  0.82844265  0.68465334  0.73616874    -0.54300
C279        C  0.84095516  0.63819021  0.70631424     0.85700
O280        O  0.86847896  0.73449095  0.70889625    -0.56200
O281        O  0.88329741  0.66118398  0.73770598    -0.59500
In282      In  0.36636416  0.20991194  0.72296797     1.36900
C283        C  0.36251686  0.16060285  0.74074618     0.78200
O284        O  0.42032844  0.21228337  0.71662936    -0.60300
O285        O  0.40521160  0.24933119  0.70744762    -0.51200
C286        C  0.30109845  0.17242180  0.70953125     0.70800
O287        O  0.30252771  0.18263380  0.72109134    -0.46000
C288        C  0.37685751  0.27155450  0.73579107     0.75500
O289        O  0.35817152  0.15239255  0.72891934    -0.57900
O290        O  0.40124298  0.26133121  0.73535431    -0.48000
O291        O  0.36762301  0.19307365  0.74340883    -0.54300
C292        C  0.42918958  0.23858374  0.70854052     0.85700
O293        O  0.33314334  0.18193163  0.70468534    -0.56200
O294        O  0.34751514  0.25147303  0.72903761    -0.59500
In295      In  0.85530198  0.19601891  0.72395384     1.36900
C296        C  0.89818423  0.25762243  0.73881986     0.78200
O297        O  0.85760905  0.23739503  0.70904058    -0.60300
O298        O  0.80351233  0.18932548  0.71361746    -0.51200
C299        C  0.88717437  0.16251125  0.71041264     0.70800
O300        O  0.85723039  0.16180202  0.70678939    -0.46000
C301        C  0.81489669  0.14422819  0.74214586     0.75500
O302        O  0.91190106  0.24861940  0.72947389    -0.57900
O303        O  0.80385556  0.16530834  0.73727889    -0.48000
O304        O  0.86284879  0.23608627  0.74024935    -0.54300
C305        C  0.82199033  0.22018895  0.70739235     0.85700
O306        O  0.90102497  0.18083407  0.72073151    -0.56200
O307        O  0.84441205  0.14752978  0.73702776    -0.59500
C308        C  0.69842484  0.36473329  0.66796718     0.46100
H309        H  0.69926700  0.36543797  0.67866995    -0.03000
C310        C  0.69663977  0.36332932  0.64282437     0.46100
H311        H  0.69537496  0.36215515  0.63213691    -0.03000
C312        C  0.71981608  0.40488995  0.66170185    -0.16700
C313        C  0.71629553  0.34282866  0.66194056    -0.16400
C314        C  0.65795480  0.34548351  0.66237438    -0.16800
C315        C  0.71872517  0.40414383  0.64843266    -0.16800
C316        C  0.71557843  0.34230478  0.64871170    -0.16300
C317        C  0.65690209  0.34463815  0.64916356    -0.16700
C318        C  0.74216974  0.03443723  0.84589431     0.80800
N319        N  0.74576559  0.04904891  0.83378149    -0.77500
C320        C  0.76855555  0.04534484  0.82497649     0.83300
N321        N  0.78742892  0.02723808  0.82837219    -0.77400
C322        C  0.78385918  0.01254652  0.84030615     0.83400
N323        N  0.76095188  0.01589368  0.84903724    -0.79100
C324        C  0.80770534  0.76362869  0.82743377     0.80800
N325        N  0.82244618  0.80090893  0.83081466    -0.77500
C326        C  0.81814068  0.81060665  0.84290973     0.83300
N327        N  0.79912521  0.78280212  0.85173515    -0.77400
C328        C  0.78435169  0.74538656  0.84859271     0.83400
N329        N  0.78808111  0.73557512  0.83631719    -0.79100
C330        C  0.36261656  0.00535290  0.80678776     0.80800
N331        N  0.34941607  0.96812829  0.80376610    -0.77500
C332        C  0.34450899  0.94266999  0.81304387     0.83300
N333        N  0.35206818  0.95437408  0.82547889    -0.77400
C334        C  0.36532106  0.99150609  0.82868515     0.83400
N335        N  0.37077279  0.01720447  0.81929619    -0.79100
C336        C  0.07680823  0.67333612  0.79817158     0.80800
N337        N  0.11452955  0.69881381  0.79632779    -0.77500
C338        C  0.13925468  0.70943880  0.80626788     0.83300
N339        N  0.12618865  0.69490847  0.81809523    -0.77400
C340        C  0.08870625  0.66974700  0.82020337     0.83400
N341        N  0.06365533  0.65889274  0.81019560    -0.79100
C342        C  0.36836374  0.41435544  0.80393430     0.80800
N343        N  0.34359526  0.42720794  0.80325703    -0.77500
C344        C  0.33591014  0.44198343  0.81369087     0.83300
N345        N  0.35265915  0.44341022  0.82505981    -0.77400
C346        C  0.37752407  0.43061564  0.82599495     0.83400
N347        N  0.38566610  0.41605838  0.81536549    -0.79100
C348        C  0.06697776  0.43973674  0.82443194     0.80800
N349        N  0.10487319  0.45441249  0.82270150    -0.77500
C350        C  0.11904703  0.45442756  0.81089755     0.83300
N351        N  0.09495738  0.43878666  0.80077642    -0.77400
C352        C  0.05682680  0.42373621  0.80235819     0.83400
N353        N  0.04277164  0.42415168  0.81424847    -0.79100
In354      In  0.54997370  0.52806103  0.92230324     1.36900
C355        C  0.60702390  0.57402784  0.90685164     0.78200
O356        O  0.59731201  0.52404085  0.93190750    -0.60300
O357        O  0.54068837  0.48165199  0.93656484    -0.51200
C358        C  0.52209733  0.56575258  0.93529765     0.70800
O359        O  0.54033541  0.57798419  0.92489207    -0.46000
C360        C  0.49688768  0.48353849  0.90524145     0.75500
O361        O  0.60395999  0.58387562  0.91814979    -0.57900
O362        O  0.49413387  0.50730922  0.91228041    -0.48000
O363        O  0.58110016  0.54103496  0.90355214    -0.54300
C364        C  0.57575355  0.49415031  0.93815621     0.85700
O365        O  0.51947938  0.53518110  0.93932295    -0.56200
O366        O  0.52512207  0.47992452  0.90767815    -0.59500
In367      In  0.52572458  0.03819770  0.92346087     1.36900
C368        C  0.47449703  0.04119584  0.90824097     0.78200
O369        O  0.52159817  0.07490361  0.93943802    -0.60300
O370        O  0.57595343  0.08978282  0.93211167    -0.51200
C371        C  0.49464685  0.96890220  0.93435669     0.70800
O372        O  0.49256052  0.97359357  0.92246587    -0.46000
C373        C  0.57903434  0.04077357  0.90779767     0.75500
O374        O  0.46586255  0.01374443  0.91579739    -0.57900
O375        O  0.55869896  0.05475074  0.90496032    -0.48000
O376        O  0.50820562  0.06866248  0.90937188    -0.54300
C377        C  0.55712980  0.09819813  0.93966092     0.85700
O378        O  0.51210192  0.99964735  0.94077431    -0.56200
O379        O  0.57250842  0.02548064  0.91876509    -0.59500
In380      In  0.01917667  0.52708422  0.92264643     1.36900
C381        C  0.00739473  0.47162567  0.90641021     0.78200
O382        O  0.98006647  0.48472986  0.93758028    -0.60300
O383        O  0.97542311  0.53354305  0.93416907    -0.51200
C384        C  0.08663874  0.55868069  0.93461630     0.70800
O385        O  0.06349007  0.57040715  0.93637055    -0.46000
C386        C  0.02742912  0.57456937  0.90344462     0.75500
O387        O  0.03097281  0.48159671  0.91551921    -0.57900
O388        O  0.99557076  0.54704430  0.90683880    -0.48000
O389        O  0.98705681  0.48669171  0.90657283    -0.54300
C390        C  0.96263968  0.50222420  0.94004022     0.85700
O391        O  0.07492317  0.53065711  0.92700362    -0.56200
O392        O  0.05464686  0.58034485  0.91065453    -0.59500
C393        C  0.69907363  0.36177984  0.00913371     0.46100
H394        H  0.69872387  0.36227981  0.01983642    -0.03000
C395        C  0.70029584  0.36129665  0.98397537     0.46100
H396        H  0.70066893  0.36089774  0.97326978    -0.03000
C397        C  0.67864936  0.32115799  0.00325605    -0.16700
C398        C  0.68000091  0.38222952  0.00283441    -0.16400
C399        C  0.73970021  0.38208403  0.00330265    -0.16800
C400        C  0.67915972  0.32109535  0.99000543    -0.16800
C401        C  0.68052876  0.38171871  0.98960631    -0.16300
C402        C  0.74009233  0.38168195  0.99003857    -0.16700
C403        C  0.88772626  0.44975350  0.96183600     0.30400
C404        C  0.86658048  0.42112283  0.97096748    -0.36000
C405        C  0.83108263  0.41630213  0.97444338     0.16300
C406        C  0.81706519  0.43790000  0.96921179     0.22200
C407        C  0.83850741  0.46701266  0.96021834    -0.34100
C408        C  0.87427915  0.47212743  0.95684348     0.16300
O409        O  0.92086348  0.45791985  0.95683087    -0.26100
C410        C  0.92919331  0.48636875  0.94866667     0.06000
C411        C  0.90132935  0.49657766  0.94832029    -0.31000
O412        O  0.78288070  0.42803179  0.97371449    -0.22800
C413        C  0.77516634  0.40006098  0.98204038    -0.02800
C414        C  0.80413635  0.39158762  0.98289139    -0.17300
H415        H  0.87692951  0.40355078  0.97499023     0.20700
H416        H  0.82795119  0.48427440  0.95608601     0.19100
H417        H  0.90038863  0.51771590  0.94225437     0.19100
H418        H  0.80521418  0.37051749  0.98895187     0.14900
C419        C  0.58530461  0.17476053  0.96148860     0.30400
C420        C  0.58197175  0.19532277  0.97184275    -0.36000
C421        C  0.61452139  0.23095431  0.97462340     0.16300
C422        C  0.64788245  0.24570276  0.96759733     0.22200
C423        C  0.65123881  0.22516933  0.95728284    -0.34100
C424        C  0.61895313  0.18932669  0.95463859     0.16300
O425        O  0.55868259  0.14065046  0.95724546    -0.26100
C426        C  0.57579638  0.13321522  0.94765244     0.06000
C427        C  0.61325587  0.16247431  0.94564825    -0.31000
O428        O  0.67482400  0.27941435  0.97190961    -0.22800
C429        C  0.65873988  0.28609408  0.98197364    -0.02800
C430        C  0.62114606  0.25706223  0.98404755    -0.17300
H431        H  0.55600377  0.18416268  0.97743099     0.20700
H432        H  0.67736510  0.23615397  0.95179624     0.19100
H433        H  0.63329698  0.16385324  0.93848440     0.19100
H434        H  0.60163874  0.25544386  0.99145492     0.14900
C435        C  0.62827860  0.45911389  0.95357897     0.30400
C436        C  0.65943096  0.45390533  0.95547843    -0.36000
C437        C  0.65676323  0.43106058  0.96599605     0.16300
C438        C  0.62586848  0.41496606  0.97424935     0.22200
C439        C  0.59439606  0.41970909  0.97224076    -0.34100
C440        C  0.59676264  0.44203815  0.96155757     0.16300
O441        O  0.62508062  0.47974723  0.94441773    -0.26100
C442        C  0.59081931  0.47542602  0.94639288     0.06000
C443        C  0.57174106  0.45205857  0.95687800    -0.31000
O444        O  0.62996415  0.39557830  0.98367741    -0.22800
C445        C  0.66370888  0.39894415  0.98131042    -0.02800
C446        C  0.68151567  0.42048003  0.97039292    -0.17300
H447        H  0.68408746  0.46682266  0.94918995     0.20700
H448        H  0.56982237  0.40692154  0.97856654     0.19100
H449        H  0.54387439  0.44422751  0.96062012     0.19100
H450        H  0.70905688  0.42788964  0.96644917     0.14900
C451        C  0.05136577  0.43643020  0.85765394     0.30400
C452        C  0.06075586  0.43774091  0.87070287    -0.36000
C453        C  0.03444419  0.43725996  0.87953193     0.16300
C454        C  0.00135672  0.43597257  0.87574405     0.22200
C455        C  0.99148030  0.43357695  0.86269341    -0.34100
C456        C  0.01770945  0.43386631  0.85386813     0.16300
O457        O  0.07302755  0.43916984  0.84780790    -0.26100
C458        C  0.05276117  0.43774065  0.83757158     0.06000
C459        C  0.01803836  0.43441177  0.84073102    -0.31000
O460        O  0.98477103  0.44335781  0.88530850    -0.22800
C461        C  0.00726282  0.44914208  0.89535899    -0.02800
C462        C  0.03813128  0.44478339  0.89240199    -0.17300
H463        H  0.08764902  0.44103801  0.87372927     0.20700
H464        H  0.96631452  0.43390327  0.85961185     0.19100
H465        H  0.99675555  0.43355395  0.83431367     0.19100
H466        H  0.06270533  0.45210207  0.89834349     0.19400
C467        C  0.45498880  0.44291659  0.87564543     0.30400
C468        C  0.45414952  0.42961049  0.86303168    -0.36000
C469        C  0.42798952  0.43095164  0.85456209     0.16300
C470        C  0.40433193  0.44428652  0.85835824     0.22200
C471        C  0.40479809  0.45702952  0.87093117    -0.34100
C472        C  0.43088213  0.45582249  0.87932464     0.16300
O473        O  0.47993391  0.44836109  0.88471880    -0.26100
C474        C  0.47140565  0.46475115  0.89427944     0.06000
C475        C  0.44099155  0.46981653  0.89147151    -0.31000
O476        O  0.38372903  0.44530930  0.84884997    -0.22800
C477        C  0.39400482  0.43243604  0.83873722    -0.02800
C478        C  0.42144037  0.42283992  0.84168231    -0.17300
H479        H  0.47362765  0.42044630  0.85989866     0.20700
H480        H  0.38708079  0.46856922  0.87382278     0.19100
H481        H  0.43011982  0.48467548  0.89712621     0.19100
H482        H  0.43519231  0.41249902  0.83524689     0.14900
C483        C  0.21249476  0.47676030  0.81575551     0.30400
C484        C  0.24233881  0.48075843  0.82352536    -0.36000
C485        C  0.26798096  0.47216051  0.81762565     0.16300
C486        C  0.26488724  0.46112315  0.80487512     0.22200
C487        C  0.23570012  0.45823246  0.79699024    -0.34100
C488        C  0.20962813  0.46616972  0.80295652     0.16300
O489        O  0.18199753  0.47675901  0.81990911    -0.26100
C490        C  0.15930724  0.46607301  0.80967846     0.06000
C491        C  0.17521595  0.45965916  0.79877983    -0.31000
O492        O  0.28923311  0.45023923  0.80175592    -0.22800
C493        C  0.30809874  0.45437213  0.81263066    -0.02800
C494        C  0.29629746  0.46811939  0.82282366    -0.17300
H495        H  0.24372791  0.48717660  0.83370427     0.20700
H496        H  0.23196214  0.44777216  0.78718454     0.19100
H497        H  0.16175299  0.44792935  0.78958628     0.19100
H498        H  0.30565475  0.47232381  0.83275549     0.14900
C499        C  0.04399490  0.62843356  0.84977889     0.30400
C500        C  0.01490937  0.60372811  0.85829168    -0.36000
C501        C  0.02557494  0.60544518  0.87128226     0.16300
C502        C  0.06230851  0.62973835  0.87557382     0.22200
C503        C  0.09107644  0.65466450  0.86713989    -0.34100
C504        C  0.08047706  0.65281903  0.85423296     0.16300
O505        O  0.04122643  0.63069004  0.83712516    -0.26100
C506        C  0.07653302  0.65683401  0.83354680     0.06000
C507        C  0.10189233  0.67139393  0.84382050    -0.31000
O508        O  0.06715968  0.62384438  0.88771969    -0.22800
C509        C  0.03303203  0.59565273  0.89137552    -0.02800
C510        C  0.00593845  0.58326179  0.88158120    -0.17300
H511        H  0.98631662  0.58365326  0.85496012     0.20700
H512        H  0.12021845  0.67318346  0.87033230     0.19100
H513        H  0.13209669  0.69249805  0.84362520     0.19100
H514        H  0.97697457  0.55915820  0.88171777     0.14900
C515        C  0.40745256  0.01349777  0.88361625     0.30400
C516        C  0.37930841  0.98595981  0.87551123    -0.36000
C517        C  0.37828808  0.99788079  0.86293636     0.16300
C518        C  0.40267936  0.03468638  0.85863344     0.22200
C519        C  0.43030017  0.06254546  0.86685566    -0.34100
C520        C  0.43188979  0.05038784  0.87938799     0.16300
O521        O  0.41747803  0.00656718  0.89489681    -0.26100
C522        C  0.44874335  0.03935132  0.89799614     0.06000
C523        C  0.45885212  0.06776619  0.88875434    -0.31000
O524        O  0.39991212  0.03816405  0.84607471    -0.22800
C525        C  0.37366149  0.00304609  0.84230957    -0.02800
C526        C  0.35907022  0.97698748  0.85242196    -0.17300
H527        H  0.36147920  0.95641821  0.87848164     0.20700
H528        H  0.45104073  0.09087148  0.86341994     0.19100
H529        H  0.48454471  0.09568447  0.88835335     0.19100
H530        H  0.33919160  0.94641161  0.85192785     0.14900
C531        C  0.23372588  0.78079717  0.81072959     0.30400
C532        C  0.26450962  0.80558896  0.81851168    -0.36000
C533        C  0.29027894  0.84105364  0.81310449     0.16300
C534        C  0.28648499  0.85117270  0.80073613     0.22200
C535        C  0.25656384  0.82555130  0.79271503    -0.34100
C536        C  0.23016593  0.79035621  0.79826308     0.16300
O537        O  0.20293300  0.74988353  0.81479332    -0.26100
C538        C  0.17930284  0.73923196  0.80483866     0.06000
C539        C  0.19474852  0.76307600  0.79419701    -0.31000
O540        O  0.30826833  0.88822138  0.79869852    -0.22800
C541        C  0.32592210  0.90187249  0.80988790    -0.02800
C542        C  0.31654849  0.87369803  0.81909566    -0.17300
H543        H  0.26593995  0.79932666  0.82854743     0.20700
H544        H  0.25185816  0.83408599  0.78336138     0.19100
H545        H  0.18063437  0.76255431  0.78531402     0.19100
H546        H  0.32378721  0.87746151  0.82923256     0.14900
C547        C  0.68513625  0.64758903  0.89057962     0.30400
C548        C  0.71511276  0.68504350  0.88852275    -0.36000
C549        C  0.73226201  0.69247101  0.87634785     0.16300
C550        C  0.72104382  0.66502473  0.86679990     0.22200
C551        C  0.69131917  0.62729879  0.86892750    -0.34100
C552        C  0.67386150  0.61991550  0.88110159     0.16300
O553        O  0.66358867  0.63507165  0.90097380    -0.26100
C554        C  0.63813235  0.59892617  0.89811779     0.06000
C555        C  0.64312365  0.58785228  0.88590897    -0.31000
O556        O  0.73901756  0.67934742  0.85578113    -0.22800
C557        C  0.76193532  0.71638176  0.85837990    -0.02800
C558        C  0.75905609  0.72597223  0.87104342    -0.17300
H559        H  0.72352066  0.70724596  0.89574342     0.20700
H560        H  0.68146593  0.60563976  0.86145379     0.19100
H561        H  0.62595812  0.56046186  0.88116505     0.19100
H562        H  0.77311235  0.75406534  0.87549269     0.14900
C563        C  0.63917843  0.05253446  0.88194528     0.30400
C564        C  0.65431372  0.06380031  0.86950771    -0.36000
C565        C  0.67932907  0.05173190  0.86542348     0.16300
C566        C  0.68895850  0.03023467  0.87309466     0.22200
C567        C  0.67401590  0.01916285  0.88558324    -0.34100
C568        C  0.64884978  0.03111388  0.88964961     0.16300
O569        O  0.61399781  0.05927020  0.88743582    -0.26100
C570        C  0.60746156  0.04203526  0.89880978     0.06000
C571        C  0.62844921  0.02415281  0.90077337    -0.31000
O572        O  0.71228927  0.02151069  0.86724116    -0.22800
C573        C  0.71765586  0.03756916  0.85566558    -0.02800
C574        C  0.69784101  0.05677821  0.85398730    -0.17300
H575        H  0.64657859  0.08026455  0.86335779     0.20700
H576        H  0.68106168  0.00194145  0.89162247     0.19100
H577        H  0.62786711  0.00756171  0.90900904     0.19100
H578        H  0.69703292  0.07199969  0.84556179     0.14900
C579        C  0.81049227  0.94828782  0.85137414     0.30400
C580        C  0.80550753  0.91686760  0.85856655    -0.36000
C581        C  0.82044710  0.89561444  0.85309222     0.16300
C582        C  0.83934832  0.90492066  0.84139910     0.22200
C583        C  0.84573356  0.93721658  0.83449376    -0.34100
C584        C  0.83033003  0.95806746  0.83986564     0.16300
O585        O  0.79316083  0.96779141  0.85348842    -0.26100
C586        C  0.80212957  0.99029054  0.84321308     0.06000
C587        C  0.82553562  0.98575405  0.83451446    -0.31000
O588        O  0.84400066  0.87729381  0.83681475    -0.22800
C589        C  0.82816307  0.85004586  0.84569012    -0.02800
C590        C  0.81370468  0.86013999  0.85616314    -0.17300
H591        H  0.78814245  0.90755362  0.86719431     0.20700
H592        H  0.85850306  0.94345753  0.82499253     0.19100
H593        H  0.83471550  0.99844536  0.82506066     0.19100
H594        H  0.79631826  0.84204580  0.86399373     0.14900
C595        C  0.79639094  0.09002488  0.76999504     0.30400
C596        C  0.80606160  0.07189391  0.77939687    -0.36000
C597        C  0.78967132  0.06824096  0.79153839     0.16300
C598        C  0.76488566  0.08099362  0.79436272     0.22200
C599        C  0.75475112  0.09887555  0.78483912    -0.34100
C600        C  0.77157287  0.10293221  0.77260663     0.16300
O601        O  0.81229192  0.10039735  0.75854823    -0.26100
C602        C  0.79763923  0.12023472  0.75360508     0.06000
C603        C  0.77169344  0.12242664  0.76184971    -0.31000
O604        O  0.75393083  0.07524192  0.80660369    -0.22800
C605        C  0.77218992  0.05871212  0.81155497    -0.02800
C606        C  0.79479972  0.05387634  0.80258329    -0.17300
H607        H  0.82637490  0.06269737  0.77751712     0.20700
H608        H  0.73617313  0.11005847  0.78693497     0.19100
H609        H  0.75790920  0.13903342  0.76060501     0.19100
H610        H  0.81256795  0.04143708  0.80400234     0.14900
C611        C  0.96923968  0.33390392  0.75684562     0.30400
C612        C  0.00669694  0.36138360  0.76030220    -0.36000
C613        C  0.01154687  0.37702358  0.77271110     0.16300
C614        C  0.98167345  0.36655644  0.78118680     0.22200
C615        C  0.94405008  0.33957883  0.77763998    -0.34100
C616        C  0.93918945  0.32386273  0.76521150     0.16300
O617        O  0.95875641  0.31301508  0.74621394    -0.26100
C618        C  0.92142555  0.28945356  0.74773332     0.06000
C619        C  0.90765902  0.29515888  0.75931690    -0.31000
O620        O  0.99325094  0.38255940  0.79266469    -0.22800
C621        C  0.03102959  0.40366417  0.79147421    -0.02800
C622        C  0.04387611  0.40138239  0.77924797    -0.17300
H623        H  0.03062312  0.36884512  0.75396750     0.20700
H624        H  0.92045790  0.33032984  0.78427823     0.19100
H625        H  0.87902259  0.27886693  0.76316846     0.19100
H626        H  0.07301455  0.41431798  0.77586616     0.14900
C627        C  0.79793647  0.27386300  0.68716989     0.30400
C628        C  0.80493834  0.30343273  0.67858746    -0.36000
C629        C  0.77410422  0.30875981  0.67613301     0.16300
C630        C  0.73873854  0.28671477  0.68177694     0.22200
C631        C  0.73158100  0.25676641  0.69025826    -0.34100
C632        C  0.76239663  0.25118088  0.69262482     0.16300
O633        O  0.82324063  0.26517518  0.69128561    -0.26100
C634        C  0.80361036  0.23613259  0.69935603     0.06000
C635        C  0.76551473  0.22599620  0.70049558    -0.31000
O636        O  0.71396566  0.29659926  0.67797950    -0.22800
C637        C  0.73373126  0.32511885  0.66971814    -0.02800
C638        C  0.77128884  0.33393246  0.66824033    -0.17300
H639        H  0.83261481  0.32125233  0.67419245     0.20700
H640        H  0.70396683  0.23910659  0.69471294     0.19100
H641        H  0.74387658  0.20457807  0.70673072     0.19100
H642        H  0.79299329  0.35514937  0.66196489     0.14900
C643        C  0.37031843  0.11771810  0.76880000     0.30400
C644        C  0.37787730  0.11603080  0.78187860    -0.36000
C645        C  0.37254710  0.08096397  0.78619837     0.16300
C646        C  0.36062858  0.04971127  0.77817391     0.22200
C647        C  0.35338287  0.05147860  0.76505073    -0.34100
C648        C  0.35869565  0.08658837  0.76073098     0.16300
O649        O  0.37278887  0.14747080  0.76283116    -0.26100
C650        C  0.36276373  0.13537815  0.75077412     0.06000
C651        C  0.35376585  0.09773804  0.74885830    -0.31000
O652        O  0.35627488  0.01942568  0.78434126    -0.22800
C653        C  0.36561538  0.03142719  0.79646083    -0.02800
C654        C  0.37606957  0.06953455  0.79819063    -0.17300
H655        H  0.38684867  0.14028385  0.78828252     0.20700
H656        H  0.34380821  0.02703726  0.75869715     0.19100
H657        H  0.34478413  0.08108670  0.74004633     0.19100
H658        H  0.38416254  0.08606547  0.80703213     0.14900
C659        C  0.36614733  0.33473061  0.75587611     0.30400
C660        C  0.34560243  0.34914883  0.76212994    -0.36000
C661        C  0.36140735  0.36909093  0.77362608     0.16300
C662        C  0.39513738  0.37469619  0.77872835     0.22200
C663        C  0.41634802  0.36126540  0.77224743    -0.34100
C664        C  0.40047669  0.34116960  0.76071657     0.16300
O665        O  0.35419490  0.31111329  0.74593429    -0.26100
C666        C  0.38138230  0.30256538  0.74430320     0.06000
C667        C  0.41106607  0.32079182  0.75311475    -0.31000
O668        O  0.40273699  0.39141972  0.79018755    -0.22800
C669        C  0.37355263  0.39678782  0.79229125    -0.02800
C670        C  0.34726106  0.38364781  0.78227680    -0.17300
H671        H  0.31820099  0.34350158  0.75863899     0.20700
H672        H  0.44237610  0.36457039  0.77622044     0.19100
H673        H  0.43519982  0.31687526  0.75442107     0.19100
H674        H  0.32072785  0.38363196  0.78167646     0.14900
C675        C  0.57043105  0.31901093  0.67720031     0.30400
C676        C  0.53606539  0.31851966  0.67904939    -0.36000
C677        C  0.51099434  0.29241597  0.68819972     0.16300
C678        C  0.51906658  0.26828429  0.69503776     0.22200
C679        C  0.55368087  0.26907581  0.69329214    -0.34100
C680        C  0.57893893  0.29546020  0.68420698     0.16300
O681        O  0.59724498  0.34012222  0.66877841    -0.26100
C682        C  0.62354778  0.33041518  0.67053767     0.06000
C683        C  0.61390025  0.30296370  0.68006419    -0.31000
O684        O  0.49124636  0.24583772  0.70298888    -0.22800
C685        C  0.46509242  0.25580021  0.70121715    -0.02800
C686        C  0.47588652  0.28471576  0.69216477    -0.17300
H687        H  0.52918656  0.33694255  0.67362961     0.20700
H688        H  0.56035125  0.25030774  0.69858910     0.19100
H689        H  0.62966446  0.28947225  0.68308595     0.19100
H690        H  0.46017753  0.29813680  0.68900986     0.14900
C691        C  0.98846541  0.66756250  0.75250107     0.30400
C692        C  0.02592594  0.67864953  0.75589147    -0.36000
C693        C  0.03089157  0.66842754  0.76829848     0.16300
C694        C  0.00112360  0.64846133  0.77682565     0.22200
C695        C  0.96348373  0.63649066  0.77330418    -0.34100
C696        C  0.95851315  0.64687302  0.76090361     0.16300
O697        O  0.97799289  0.67828872  0.74207063    -0.26100
C698        C  0.94082341  0.66395695  0.74378067     0.06000
C699        C  0.92710185  0.64387798  0.75525125    -0.31000
O700        O  0.01291425  0.64585911  0.78841714    -0.22800
C701        C  0.05069097  0.66433406  0.78724205    -0.02800
C702        C  0.06332870  0.67861179  0.77490904    -0.17300
H703        H  0.04984164  0.69604088  0.74958618     0.20700
H704        H  0.93997031  0.62203271  0.78002637     0.19100
H705        H  0.89872113  0.63159133  0.75929801     0.19100
H706        H  0.09240269  0.69619207  0.77153695     0.14900
C707        C  0.83954884  0.74927398  0.77267503     0.30400
C708        C  0.85077936  0.77679229  0.78242709    -0.36000
C709        C  0.83238362  0.76365610  0.79429261     0.16300
C710        C  0.80489661  0.72595348  0.79656545     0.22200
C711        C  0.79315847  0.69836512  0.78669057    -0.34100
C712        C  0.81139379  0.71163659  0.77469792     0.16300
O713        O  0.85516260  0.75495277  0.76117023    -0.26100
C714        C  0.83637346  0.72073372  0.75558124     0.06000
C715        C  0.80859766  0.69263911  0.76348708    -0.31000
O716        O  0.79248261  0.72016396  0.80862435    -0.22800
C717        C  0.81227961  0.75477659  0.81400892    -0.02800
C718        C  0.83733032  0.78276287  0.80550356    -0.17300
H719        H  0.87299116  0.80630251  0.78094836     0.20700
H720        H  0.77184862  0.66860743  0.78829323     0.19100
H721        H  0.79097000  0.66224373  0.76157482     0.19100
H722        H  0.85663170  0.81294135  0.80735286     0.14900
C723        C  0.78052555  0.54805332  0.69253320     0.30400
C724        C  0.74818634  0.51112220  0.69190099    -0.36000
C725        C  0.74921084  0.48630389  0.68266570     0.16300
C726        C  0.77973922  0.49729092  0.67445472     0.22200
C727        C  0.81210295  0.53427446  0.67506037    -0.34100
C728        C  0.81129547  0.55892565  0.68443579     0.16300
O729        O  0.78631901  0.57505757  0.70090315    -0.26100
C730        C  0.82134166  0.60359155  0.69821097     0.06000
C731        C  0.83826361  0.59522316  0.68802599    -0.31000
O732        O  0.77415099  0.46983248  0.66631749    -0.22800
C733        C  0.73961460  0.44081203  0.66936680    -0.02800
C734        C  0.72295317  0.44929202  0.67957240    -0.17300
H735        H  0.72407562  0.50217717  0.69830317     0.20700
H736        H  0.83636509  0.54308543  0.66874051     0.19100
H737        H  0.86677261  0.61278316  0.68416544     0.19100
H738        H  0.69488620  0.43135733  0.68369934     0.14900
C739        C  0.85532046  0.92959482  0.36058364     0.30400
C740        C  0.89041987  0.93118986  0.35906573    -0.36000
C741        C  0.91398294  0.95463122  0.34905506     0.16300
C742        C  0.90345870  0.97468749  0.34101849     0.22200
C743        C  0.86858761  0.97334332  0.34260212    -0.34100
C744        C  0.84529450  0.95035452  0.35269333     0.16300
O745        O  0.82908255  0.90993274  0.36939052    -0.26100
C746        C  0.80214998  0.91857707  0.36717957     0.06000
C747        C  0.81076833  0.94370885  0.35694437    -0.31000
O748        O  0.92942633  0.99433404  0.33217380    -0.22800
C749        C  0.95707243  0.98688201  0.33454109    -0.02800
C750        C  0.94926441  0.96268995  0.34503274    -0.17300
H751        H  0.89882887  0.91543474  0.36528450     0.20700
H752        H  0.86028462  0.98926801  0.33642689     0.19100
H753        H  0.79408379  0.95545747  0.35323556     0.19100
H754        H  0.96674265  0.95209651  0.34893883     0.14900
C755        C  0.10598738  0.15395346  0.34232564     0.30400
C756        C  0.13750872  0.19096637  0.34390957    -0.36000
C757        C  0.13276061  0.21496967  0.35249240     0.16300
C758        C  0.09911422  0.20356820  0.35902710     0.22200
C759        C  0.06748803  0.16628920  0.35750442    -0.34100
C760        C  0.07239697  0.14206718  0.34897107     0.16300
O761        O  0.10390518  0.12765152  0.33432391    -0.26100
C762        C  0.06853665  0.09834080  0.33582172     0.06000
C763        C  0.04771254  0.10540861  0.34494885    -0.31000
O764        O  0.10132590  0.23084172  0.36665412    -0.22800
C765        C  0.13694855  0.25990740  0.36501359    -0.02800
C766        C  0.15772508  0.25154353  0.35633092    -0.17300
H767        H  0.16396086  0.20051243  0.33871485     0.20700
H768        H  0.04090061  0.15686702  0.36258529     0.19100
H769        H  0.01810306  0.08702689  0.34764533     0.19100
H770        H  0.18724072  0.26959952  0.35346214     0.14900
C771        C  0.13586666  0.95240207  0.36064128     0.30400
C772        C  0.12989645  0.98336912  0.35923327    -0.36000
C773        C  0.10488685  0.98008975  0.34938764     0.16300
C774        C  0.08744743  0.94877334  0.34128098     0.22200
C775        C  0.09305807  0.91749268  0.34278854    -0.34100
C776        C  0.11756142  0.92045198  0.35283032     0.16300
O777        O  0.15804311  0.94961898  0.36926099    -0.26100
C778        C  0.15352985  0.91517081  0.36714716     0.06000
C779        C  0.12852660  0.89557740  0.35706135    -0.31000
O780        O  0.06635819  0.95250989  0.33240633    -0.22800
C781        C  0.07008027  0.98651876  0.33495408    -0.02800
C782        C  0.09340297  0.00471382  0.34549761    -0.17300
H783        H  0.14382839  0.00837516  0.36541972     0.20700
H784        H  0.07927278  0.89257868  0.33656069     0.19100
H785        H  0.11994603  0.86733534  0.35335672     0.19100
H786        H  0.10172320  0.03267243  0.34942694     0.14900
C787        C  0.25997313  0.34432473  0.43621643     0.30400
C788        C  0.25333868  0.33097207  0.44898839    -0.36000
C789        C  0.27910085  0.35599384  0.45824565     0.16300
C790        C  0.30931024  0.39163907  0.45505138     0.22200
C791        C  0.31640980  0.40468893  0.44228083    -0.34100
C792        C  0.29066249  0.37973705  0.43305332     0.16300
O793        O  0.23636417  0.32818938  0.42647791    -0.26100
C794        C  0.25214400  0.35339034  0.41694284     0.06000
C795        C  0.28630649  0.38582938  0.42042889    -0.31000
O796        O  0.32803821  0.41165560  0.46522921    -0.22800
C797        C  0.31002370  0.38863394  0.47513785    -0.02800
C798        C  0.27929406  0.35340428  0.47139836    -0.17300
H799        H  0.22854211  0.30382671  0.45162158     0.20700
H800        H  0.33930753  0.43320606  0.43981361     0.19100
H801        H  0.30293708  0.41194986  0.41496263     0.19100
H802        H  0.25922455  0.33010089  0.47747138     0.14900
C803        C  0.65043565  0.74141806  0.45758816     0.30400
C804        C  0.63504228  0.74209779  0.44562648    -0.36000
C805        C  0.66091846  0.76736734  0.43653340     0.16300
C806        C  0.69938575  0.79043109  0.43901585     0.22200
C807        C  0.71487523  0.78956396  0.45101830    -0.34100
C808        C  0.68886606  0.76421934  0.46017135     0.16300
O809        O  0.63094583  0.72086635  0.46754868    -0.26100
C810        C  0.65699825  0.73034817  0.47670665     0.06000
C811        C  0.69372387  0.75724386  0.47270372    -0.31000
O812        O  0.71774955  0.81401491  0.42941924    -0.22800
C813        C  0.69064188  0.80578324  0.42072804    -0.02800
C814        C  0.65477166  0.77688674  0.42461317    -0.17300
H815        H  0.60482824  0.72485839  0.44367376     0.20700
H816        H  0.74481249  0.80808467  0.45317872     0.19100
H817        H  0.71985566  0.77011675  0.47824296     0.19100
H818        H  0.62779429  0.76625270  0.41972307     0.14900
C819        C  0.49859469  0.60637633  0.49947987     0.30400
C820        C  0.46550513  0.58424124  0.49224579    -0.36000
C821        C  0.43695751  0.55121755  0.49826394     0.16300
C822        C  0.44049666  0.54105835  0.51064804     0.22200
C823        C  0.47327645  0.56367856  0.51799644    -0.34100
C824        C  0.50212044  0.59637965  0.51188900     0.16300
O825        O  0.53053115  0.63532185  0.49509281    -0.26100
C826        C  0.55479899  0.64399042  0.50478437     0.06000
C827        C  0.53872502  0.62095597  0.51554735    -0.31000
O828        O  0.41266159  0.50665765  0.51374482    -0.22800
C829        C  0.39116591  0.49465295  0.50322270    -0.02800
C830        C  0.40465660  0.52126870  0.49330428    -0.17300
H831        H  0.46329637  0.59086260  0.48229915     0.20700
H832        H  0.47708790  0.55494496  0.52745168     0.19100
H833        H  0.55265951  0.62060015  0.52436737     0.19100
H834        H  0.39405147  0.51774257  0.48354461     0.14900
C835        C  0.15440013  0.75524711  0.46161398     0.30400
C836        C  0.17522808  0.76169015  0.45023456    -0.36000
C837        C  0.16563109  0.77762734  0.44006395     0.16300
C838        C  0.13763871  0.78710370  0.44095217     0.22200
C839        C  0.11656945  0.78056476  0.45243534    -0.34100
C840        C  0.12613820  0.76431926  0.46269133     0.16300
O841        O  0.15871140  0.74007373  0.47216755    -0.26100
C842        C  0.13303280  0.73928514  0.48027195     0.06000
C843        C  0.11185771  0.75413747  0.47494389    -0.31000
O844        O  0.13539400  0.80399927  0.43036001    -0.22800
C845        C  0.16213788  0.80487091  0.42266115    -0.02800
C846        C  0.18156933  0.78870227  0.42822206    -0.17300
H847        H  0.19766364  0.75493205  0.44939654     0.20700
H848        H  0.09467139  0.78803257  0.45336108     0.19100
H849        H  0.08893648  0.75634149  0.47934073     0.19100
H850        H  0.20562763  0.78742266  0.42436836     0.14900
C851        C  0.10653076  0.40467203  0.45665406     0.30400
C852        C  0.11467880  0.41874630  0.44402573    -0.36000
C853        C  0.11117861  0.39259989  0.43450776     0.16300
C854        C  0.10021417  0.35507484  0.43724387     0.22200
C855        C  0.09076802  0.34062832  0.44983264    -0.34100
C856        C  0.09453559  0.36689487  0.45936713     0.16300
O857        O  0.11228058  0.42529679  0.46712337    -0.26100
C858        C  0.10353867  0.40041172  0.47667285     0.06000
C859        C  0.09196098  0.36350672  0.47244516    -0.31000
O860        O  0.10515565  0.33759434  0.42736159    -0.22800
C861        C  0.11914435  0.36409793  0.41816709    -0.02800
C862        C  0.12297036  0.39872287  0.42200243    -0.17300
H863        H  0.12552058  0.44864526  0.44190044     0.20700
H864        H  0.08366530  0.31175927  0.45215834     0.19100
H865        H  0.08475223  0.33846550  0.47818277     0.19100
H866        H  0.13673979  0.42566086  0.41686354     0.14900
C867        C  0.17354963  0.56140686  0.50465310     0.30400
C868        C  0.18418300  0.59547042  0.49805997    -0.36000
C869        C  0.17767294  0.62195549  0.50453400     0.16300
C870        C  0.16254155  0.61575582  0.51682371     0.22200
C871        C  0.15429127  0.58277950  0.52374060    -0.34100
C872        C  0.15986948  0.55581877  0.51713790     0.16300
O873        O  0.16809742  0.52956112  0.49926241    -0.26100
C874        C  0.15096157  0.50329971  0.50839368     0.06000
C875        C  0.14587377  0.51815883  0.51981997    -0.31000
O876        O  0.15043276  0.63938464  0.51984641    -0.22800
C877        C  0.15802464  0.66103073  0.50940908    -0.02800
C878        C  0.17573117  0.65198527  0.49969854    -0.17300
H879        H  0.19242398  0.59898115  0.48798820     0.20700
H880        H  0.14002887  0.57641530  0.53301388     0.19100
H881        H  0.12958303  0.50251980  0.52821704     0.19100
H882        H  0.18156727  0.66254819  0.48989101     0.14900
C883        C  0.72826441  0.04166674  0.44805920     0.30400
C884        C  0.74324686  0.01825522  0.44489162    -0.36000
C885        C  0.73491437  0.00229220  0.43245767     0.16300
C886        C  0.71338437  0.00890800  0.42373591     0.22200
C887        C  0.69866468  0.03244889  0.42686560    -0.34100
C888        C  0.70687972  0.04824767  0.43927478     0.16300
O889        O  0.73177837  0.05905245  0.45920537    -0.26100
C890        C  0.71235036  0.07692477  0.45745878     0.06000
C891        C  0.69626534  0.07108612  0.44525615    -0.31000
O892        O  0.70698871  0.98917633  0.41298275    -0.22800
C893        C  0.72473252  0.96973507  0.41481920    -0.02800
C894        C  0.74276095  0.97688076  0.42672117    -0.17300
H895        H  0.75959410  0.01230065  0.45171036     0.20700
H896        H  0.68127136  0.03740725  0.42019432     0.19100
H897        H  0.67916559  0.08213425  0.44134857     0.19100
H898        H  0.75770279  0.96368355  0.43080013     0.14900
C899        C  0.29232249  0.00070885  0.43165407     0.30400
C900        C  0.29432066  0.01687001  0.44385594    -0.36000
C901        C  0.33028914  0.04745885  0.44745073     0.16300
C902        C  0.36175088  0.06105772  0.43949121     0.22200
C903        C  0.35973165  0.04508552  0.42735744    -0.34100
C904        C  0.32407985  0.01451990  0.42383038     0.16300
O905        O  0.26214087  0.97105333  0.42647774    -0.26100
C906        C  0.27499501  0.96598868  0.41526195     0.06000
C907        C  0.31328741  0.99212910  0.41312016    -0.31000
O908        O  0.39292579  0.08827045  0.44488459    -0.22800
C909        C  0.38170071  0.09244392  0.45648971    -0.02800
C910        C  0.34287106  0.06792796  0.45867577    -0.17300
H911        H  0.26982163  0.00580349  0.45020208     0.20700
H912        H  0.38458748  0.05521058  0.42121692     0.19100
H913        H  0.33073130  0.99393270  0.40495258     0.19100
H914        H  0.32676163  0.06457938  0.46738688     0.14900
C915        C  0.61797555  0.16323892  0.46124511     0.30400
C916        C  0.58521226  0.15489164  0.45427248    -0.36000
C917        C  0.56238226  0.16801109  0.45969959     0.16300
C918        C  0.57156984  0.18852437  0.47109634     0.22200
C919        C  0.60524888  0.19847140  0.47770249    -0.34100
C920        C  0.62757711  0.18464599  0.47244717     0.16300
O921        O  0.63880937  0.14726141  0.45940985    -0.26100
C922        C  0.66188561  0.15856491  0.46956267     0.06000
C923        C  0.65654132  0.18228786  0.47788754    -0.31000
O924        O  0.54279355  0.19068585  0.47589885    -0.22800
C925        C  0.51488534  0.17158882  0.46747087    -0.02800
C926        C  0.52566149  0.15748858  0.45705664    -0.17300
H927        H  0.57607252  0.13605482  0.44597111     0.20700
H928        H  0.61143201  0.21232927  0.48703895     0.19100
H929        H  0.66938927  0.19292517  0.48723588     0.19100
H930        H  0.50758952  0.13792521  0.44961279     0.14900
C931        C  0.20616699  0.12258805  0.69863319     0.30400
C932        C  0.16659557  0.10758029  0.69945169    -0.36000
C933        C  0.14557444  0.09077092  0.68817919     0.16300
C934        C  0.16231751  0.08860073  0.67689899     0.22200
C935        C  0.20182776  0.10297299  0.67612767    -0.34100
C936        C  0.22293081  0.12016104  0.68737486     0.16300
O937        O  0.23131651  0.14115496  0.70783423    -0.26100
C938        C  0.26473751  0.15083799  0.70244502     0.06000
C939        C  0.26127265  0.13844068  0.68971562    -0.31000
O940        O  0.13774955  0.07423372  0.66730107    -0.22800
C941        C  0.10470950  0.06722102  0.67241322    -0.02800
C942        C  0.10790348  0.07651388  0.68546659    -0.17300
H943        H  0.15327879  0.10995112  0.70816836     0.20700
H944        H  0.21532764  0.10200515  0.66724895     0.19100
H945        H  0.28374943  0.14272306  0.68312274     0.19100
H946        H  0.08616107  0.07485409  0.69190073     0.14900
C947        C  0.94060590  0.12171631  0.69915650     0.30400
C948        C  0.96942247  0.11223781  0.69946757    -0.36000
C949        C  0.97245033  0.09322827  0.68855041     0.16300
C950        C  0.94867312  0.08418426  0.67806169     0.22200
C951        C  0.91953550  0.09311592  0.67782309    -0.34100
C952        C  0.91655332  0.11215492  0.68871247     0.16300
O953        O  0.93357943  0.14065348  0.70810917    -0.26100
C954        C  0.90452087  0.14318532  0.70338354     0.06000
C955        C  0.89269056  0.12579167  0.69134962    -0.31000
O956        O  0.95770441  0.06833508  0.66862130    -0.22800
C957        C  0.98781226  0.06713422  0.67301257    -0.02800
C958        C  0.99792298  0.08182736  0.68547171    -0.17300
H959        H  0.98870712  0.11988720  0.70757044     0.20700
H960        H  0.90096650  0.08642492  0.66955825     0.19100
H961        H  0.87011546  0.12393648  0.68534609     0.19100
H962        H  0.02154464  0.08508478  0.69121343     0.14900
C963        C  0.95146338  0.90191286  0.67879327     0.30400
C964        C  0.91945739  0.86509515  0.68031015    -0.36000
C965        C  0.92252321  0.84201399  0.68970338     0.16300
C966        C  0.95497708  0.85427935  0.69701905     0.22200
C967        C  0.98670071  0.89128153  0.69564798    -0.34100
C968        C  0.98351702  0.91443582  0.68634507     0.16300
O969        O  0.95549689  0.92764714  0.67022682    -0.26100
C970        C  0.99040142  0.95710949  0.67244438     0.06000
C971        C  0.00904648  0.95067644  0.68241722    -0.31000
O972        O  0.95231185  0.82753753  0.70485794    -0.22800
C973        C  0.91762305  0.79780750  0.70261258    -0.02800
C974        C  0.89764250  0.80518758  0.69333896    -0.17300
H975        H  0.89418362  0.85493296  0.67442608     0.20700
H976        H  0.01232513  0.90113866  0.70131393     0.19100
H977        H  0.03776308  0.96946546  0.68589966     0.19100
H978        H  0.86926681  0.78598782  0.68966185     0.14900
C979        C  0.57857171  0.31852020  0.62870091     0.30400
C980        C  0.55670974  0.32438880  0.61957788    -0.36000
C981        C  0.51984135  0.29329939  0.61732708     0.16300
C982        C  0.50546539  0.25849022  0.62347131     0.22200
C983        C  0.52735189  0.25260639  0.63262102    -0.34100
C984        C  0.56406623  0.28395169  0.63502301     0.16300
O985        O  0.61332444  0.34412520  0.63256241    -0.26100
C986        C  0.62104164  0.32592149  0.64160775     0.06000
C987        C  0.59147071  0.28838387  0.64352633    -0.31000
O988        O  0.47005293  0.23354359  0.61994889    -0.22800
C989        C  0.46159087  0.25284695  0.61153734    -0.02800
C990        C  0.49153525  0.29008045  0.60953742    -0.17300
H991        H  0.56747599  0.35157799  0.61471946     0.20700
H992        H  0.51629264  0.22567741  0.63768256     0.19100
H993        H  0.59026046  0.26762115  0.65032869     0.19100
H994        H  0.49226972  0.31167302  0.60324153     0.14900
C995        C  0.30629669  0.32203872  0.53394214     0.30400
C996        C  0.29352229  0.28509604  0.53873202    -0.36000
C997        C  0.30759611  0.28315207  0.55088813     0.16300
C998        C  0.33248394  0.31530661  0.55789136     0.22200
C999        C  0.34447350  0.35211005  0.55326577    -0.34100
C1000       C  0.33046576  0.35399203  0.54114554     0.16300
O1001       O  0.30006502  0.33086034  0.52226890    -0.26100
C1002       C  0.32033800  0.36899773  0.52211498     0.06000
C1003       C  0.33945963  0.38466709  0.53365174    -0.31000
O1004       O  0.34537128  0.30703944  0.56830746    -0.22800
C1005       C  0.32835433  0.26905330  0.56802402    -0.02800
C1006       C  0.30428697  0.25267000  0.55748494    -0.17300
H1007       H  0.27541146  0.25964199  0.53309872     0.20700
H1008       H  0.36488756  0.37761652  0.55846273     0.19100
H1009       H  0.35917231  0.41450313  0.53592612     0.19100
H1010       H  0.28874575  0.22281927  0.55463165     0.14900
C1011       C  0.39239923  0.13780068  0.51789288     0.30400
C1012       C  0.36622729  0.12200282  0.52814091    -0.36000
C1013       C  0.37877899  0.14054225  0.54012286     0.16300
C1014       C  0.41456834  0.17239876  0.54180864     0.22200
C1015       C  0.44068589  0.18787431  0.53165617    -0.34100
C1016       C  0.42818429  0.16944788  0.51976531     0.16300
O1017       O  0.38692670  0.12549873  0.50583340    -0.26100
C1018       C  0.41976396  0.14961816  0.50002159     0.06000
C1019       C  0.44631626  0.17750367  0.50823857    -0.31000
O1020       O  0.41934504  0.18749235  0.55335927    -0.22800
C1021       C  0.38636950  0.16510608  0.55927519    -0.02800
C1022       C  0.36002872  0.13507950  0.55157513    -0.17300
H1023       H  0.33782852  0.09749361  0.52680799     0.20700
H1024       H  0.46857364  0.21324186  0.53287454     0.19100
H1025       H  0.47510690  0.20017769  0.50605283     0.19100
H1026       H  0.33047934  0.11442312  0.55372130     0.14900
C1027       C  0.21235556  0.11193044  0.62171966     0.30400
C1028       C  0.17824816  0.07721363  0.62399393    -0.36000
C1029       C  0.15081055  0.07950941  0.63155286     0.16300
C1030       C  0.15672433  0.11360204  0.63663857     0.22200
C1031       C  0.19066393  0.14833414  0.63427927    -0.34100
C1032       C  0.21798517  0.14604495  0.62667459     0.16300
O1033       O  0.24149354  0.11655532  0.61468980    -0.26100
C1034       C  0.26613476  0.15412123  0.61516744     0.06000
C1035       C  0.25300104  0.17388510  0.62248692    -0.31000
O1036       O  0.12810832  0.10892607  0.64394741    -0.22800
C1037       C  0.10327581  0.07143326  0.64338904    -0.02800
C1038       C  0.11575278  0.05166489  0.63578739    -0.17300
H1039       H  0.17345304  0.05028040  0.62014654     0.20700
H1040       H  0.19553886  0.17524470  0.63818106     0.19100
H1041       H  0.26677989  0.20445001  0.62414085     0.19100
H1042       H  0.10179348  0.02109390  0.63414843     0.14900
C1043       C  0.79614777  0.28414452  0.61662715     0.30400
C1044       C  0.78995868  0.31517090  0.61709418    -0.36000
C1045       C  0.76489369  0.31359324  0.62669955     0.16300
C1046       C  0.74756835  0.28381088  0.63537819     0.22200
C1047       C  0.75333572  0.25251877  0.63480561    -0.34100
C1048       C  0.77802078  0.25384736  0.62508366     0.16300
O1049       O  0.81880331  0.27998925  0.60852465    -0.26100
C1050       C  0.81487605  0.24640712  0.61172828     0.06000
C1051       C  0.78971852  0.22873505  0.62193110    -0.31000
O1052       O  0.72710588  0.28933574  0.64404334    -0.22800
C1053       C  0.73104054  0.32289820  0.64079142    -0.02800
C1054       C  0.75391246  0.33912634  0.62999857    -0.17300
H1055       H  0.80400154  0.33905489  0.61050595     0.20700
H1056       H  0.73989710  0.22903334  0.64156661     0.19100
H1057       H  0.78152591  0.20155483  0.62641055     0.19100
H1058       H  0.76275131  0.36662769  0.62565884     0.14900
C1059       C  0.99330095  0.28146419  0.55034464     0.30400
C1060       C  0.00568011  0.28299808  0.53758931    -0.36000
C1061       C  0.03265823  0.31952586  0.53302406     0.16300
C1062       C  0.04653773  0.35204275  0.54055768     0.22200
C1063       C  0.03440531  0.35044896  0.55327844    -0.34100
C1064       C  0.00741923  0.31413873  0.55780593     0.16300
O1065       O  0.96585963  0.25111361  0.55622735    -0.26100
C1066       C  0.96257476  0.26469619  0.56755622     0.06000
C1067       C  0.98782564  0.30362498  0.56910017    -0.31000
O1068       O  0.07000141  0.38343166  0.53425658    -0.22800
C1069       C  0.07134022  0.37110914  0.52250724    -0.02800
C1070       C  0.04868018  0.33153256  0.52112966    -0.17300
H1071       H  0.99408220  0.25776179  0.53152157     0.20700
H1072       H  0.04436827  0.37598469  0.55910007     0.19100
H1073       H  0.98970744  0.32189443  0.57703314     0.19100
H1074       H  0.04387184  0.31438520  0.51255478     0.14900
C1075       C  0.76091093  0.12972160  0.51784144     0.30400
C1076       C  0.77837898  0.11886458  0.52722275    -0.36000
C1077       C  0.78479651  0.13715407  0.53925786     0.16300
C1078       C  0.77517747  0.16461139  0.54180881     0.22200
C1079       C  0.75762328  0.17530587  0.53248933    -0.34100
C1080       C  0.75090208  0.15679476  0.52055214     0.16300
O1081       O  0.75208158  0.11640851  0.50592194    -0.26100
C1082       C  0.73613956  0.13523061  0.50101764     0.06000
C1083       C  0.73470448  0.16064433  0.50971510    -0.31000
O1084       O  0.78566485  0.17962211  0.55340609    -0.22800
C1085       C  0.80168924  0.16116087  0.55847084    -0.02800
C1086       C  0.80191447  0.13434246  0.55013091    -0.17300
H1087       H  0.78659469  0.09780211  0.52525952     0.20700
H1088       H  0.75006599  0.19691301  0.53437380     0.19100
H1089       H  0.72320853  0.17924997  0.50826077     0.19100
H1090       H  0.81476021  0.11695747  0.55161080     0.14900
C1091       C  0.95590460  0.07854577  0.63158231     0.30400
C1092       C  0.92655085  0.07229073  0.62304753    -0.36000
C1093       C  0.92207791  0.10387808  0.62070485     0.16300
C1094       C  0.94525748  0.13934438  0.62623923     0.22200
C1095       C  0.97452487  0.14558233  0.63478831    -0.34100
C1096       C  0.97870623  0.11392044  0.63723667     0.16300
O1097       O  0.96421317  0.05270533  0.63552512    -0.26100
C1098       C  0.99241058  0.07172203  0.64391119     0.06000
C1099       C  0.00280100  0.10996623  0.64528197    -0.31000
O1100       O  0.93694394  0.16518808  0.62235705    -0.22800
C1101       C  0.90778759  0.14599978  0.61431961    -0.02800
C1102       C  0.89719576  0.10767859  0.61296300    -0.17300
H1103       H  0.90825660  0.04462086  0.61862142     0.20700
H1104       H  0.99270314  0.17320484  0.63926676     0.19100
H1105       H  0.02415387  0.13130574  0.65162647     0.19100
H1106       H  0.87537906  0.08620831  0.60677420     0.14900
C1107       C  0.78981666  0.53856089  0.61298023     0.30400
C1108       C  0.77760691  0.49923088  0.61282485    -0.36000
C1109       C  0.76035334  0.47885103  0.62420160     0.16300
C1110       C  0.75535867  0.49604348  0.63491144     0.22200
C1111       C  0.76742814  0.53515613  0.63506468    -0.34100
C1112       C  0.78480250  0.55550129  0.62377138     0.16300
O1113       O  0.80753869  0.56342795  0.60358247    -0.26100
C1114       C  0.81399284  0.59664725  0.60848273     0.06000
C1115       C  0.80043839  0.59334879  0.62099645    -0.31000
O1116       O  0.73967725  0.47217823  0.64461381    -0.22800
C1117       C  0.73476188  0.43909378  0.64023389    -0.02800
C1118       C  0.74674384  0.44145055  0.62748999    -0.17300
H1119       H  0.78179371  0.48561763  0.60449865     0.20700
H1120       H  0.76408175  0.54893353  0.64351553     0.19100
H1121       H  0.80225221  0.61574481  0.62719850     0.19100
H1122       H  0.74653919  0.41923660  0.62162294     0.14900
C1123       C  0.77508229  0.71723238  0.54780661     0.30400
C1124       C  0.77299913  0.73286773  0.53602827    -0.36000
C1125       C  0.73626981  0.72138557  0.53162291     0.16300
C1126       C  0.70382672  0.69647419  0.53842566     0.22200
C1127       C  0.70590494  0.68122766  0.55031381    -0.34100
C1128       C  0.74268860  0.69242319  0.55465799     0.16300
O1129       O  0.80646335  0.72272975  0.55334991    -0.26100
C1130       C  0.79415028  0.70120546  0.56388480     0.06000
C1131       C  0.75469190  0.68169544  0.56525745    -0.31000
O1132       O  0.67242170  0.68762869  0.53211465    -0.22800
C1133       C  0.68486695  0.70705706  0.52113379    -0.02800
C1134       C  0.72438186  0.72878790  0.52031438    -0.17300
H1135       H  0.79826958  0.75176661  0.53049020     0.20700
H1136       H  0.68057768  0.66109122  0.55559194     0.19100
H1137       H  0.73747536  0.66217380  0.57283249     0.19100
H1138       H  0.74173405  0.74609123  0.51233748     0.14900
C1139       C  0.99217912  0.71817305  0.54959546     0.30400
C1140       C  0.00996308  0.73245787  0.53766485    -0.36000
C1141       C  0.03461387  0.72011695  0.53343496     0.16300
C1142       C  0.04154069  0.69552690  0.54048085     0.22200
C1143       C  0.02367781  0.68114999  0.55245892    -0.34100
C1144       C  0.99877317  0.69339690  0.55667970     0.16300
O1145       O  0.96738571  0.72536849  0.55514129    -0.26100
C1146       C  0.95777337  0.70499352  0.56594535     0.06000
C1147       C  0.97637436  0.68443105  0.56744715    -0.31000
O1148       O  0.06542277  0.68754578  0.53456723    -0.22800
C1149       C  0.07373122  0.70721177  0.52358776    -0.02800
C1150       C  0.05533046  0.72796238  0.52237816    -0.17300
H1151       H  0.00460901  0.75156360  0.53200455     0.20700
H1152       H  0.02855461  0.66154795  0.55801861     0.19100
H1153       H  0.97329788  0.66524455  0.57518637     0.19100
H1154       H  0.05687458  0.74603708  0.51447813     0.14900
C1155       C  0.93294607  0.85381715  0.61752521     0.30400
C1156       C  0.93912954  0.89124383  0.61803561    -0.36000
C1157       C  0.96094410  0.91407543  0.62845451     0.16300
C1158       C  0.97512850  0.90069116  0.63782876     0.22200
C1159       C  0.96932092  0.86347163  0.63724144    -0.34100
C1160       C  0.94804620  0.84087340  0.62673115     0.16300
O1161       O  0.91366332  0.82773889  0.60859842    -0.26100
C1162       C  0.91688890  0.79788131  0.61202349     0.06000
C1163       C  0.93805476  0.80445788  0.62321766    -0.31000
O1164       O  0.99355223  0.92626172  0.64695251    -0.22800
C1165       C  0.99147404  0.95667211  0.64339425    -0.02800
C1166       C  0.97186334  0.95087562  0.63185808    -0.17300
H1167       H  0.92772884  0.90185386  0.61078656     0.20700
H1168       H  0.98064571  0.85284074  0.64451093     0.19100
H1169       H  0.94504709  0.78519119  0.62804577     0.19100
H1170       H  0.96555054  0.97048720  0.62693627     0.14900
C1171       C  0.85645606  0.26807171  0.16484238     0.30400
C1172       C  0.82107377  0.24980197  0.15858921    -0.36000
C1173       C  0.79265132  0.21592295  0.16428150     0.16300
C1174       C  0.79842291  0.20160192  0.17555727     0.22200
C1175       C  0.83321847  0.22081579  0.18213558    -0.34100
C1176       C  0.86190548  0.25418100  0.17627465     0.16300
O1177       O  0.88869292  0.29512974  0.15981585    -0.26100
C1178       C  0.91502615  0.29873562  0.16814663     0.06000
C1179       C  0.89997735  0.27443970  0.17868667    -0.31000
O1180       O  0.77085997  0.16640257  0.17790306    -0.22800
C1181       C  0.74720877  0.15801995  0.16802535    -0.02800
C1182       C  0.75894703  0.18791055  0.15933022    -0.17300
H1183       H  0.81720720  0.25914351  0.14926523     0.20700
H1184       H  0.83872157  0.20854486  0.19050377     0.19100
H1185       H  0.91522626  0.26948251  0.18622971     0.19100
H1186       H  0.74660480  0.18754340  0.15007434     0.14900
C1187       C  0.32578400  0.77527863  0.35410160     0.30400
C1188       C  0.33219304  0.80519226  0.36258503    -0.36000
C1189       C  0.30158304  0.81165681  0.36429550     0.16300
C1190       C  0.26690360  0.78983241  0.35822402     0.22200
C1191       C  0.26059359  0.76016066  0.34973245    -0.34100
C1192       C  0.29120567  0.75398103  0.34793171     0.16300
O1193       O  0.35079227  0.76519860  0.35060018    -0.26100
C1194       C  0.33196622  0.73730138  0.34198972     0.06000
C1195       C  0.29472895  0.72905306  0.34006690    -0.31000
O1196       O  0.24180420  0.79984454  0.36149716    -0.22800
C1197       C  0.26064647  0.82882223  0.36968965    -0.02800
C1198       C  0.29806016  0.83757729  0.37173904    -0.17300
H1199       H  0.35925324  0.82246752  0.36741294     0.20700
H1200       H  0.23366048  0.74313767  0.34479949     0.19100
H1201       H  0.27372139  0.70851337  0.33344587     0.19100
H1202       H  0.31910203  0.85901088  0.37814058     0.14900
C1203       C  0.27760341  0.51811225  0.36626104     0.30400
C1204       C  0.31051517  0.55493705  0.36650211    -0.36000
C1205       C  0.31354141  0.58028532  0.35671518     0.16300
C1206       C  0.28601515  0.56980961  0.34734804     0.22200
C1207       C  0.25295934  0.53331352  0.34721868    -0.34100
C1208       C  0.24991664  0.50807330  0.35698172     0.16300
O1209       O  0.26956663  0.48951800  0.37418414    -0.26100
C1210       C  0.23624861  0.46079996  0.36996176     0.06000
C1211       C  0.22259032  0.47079633  0.35930000    -0.31000
O1212       O  0.29542628  0.59674693  0.33865112    -0.22800
C1213       C  0.32941463  0.62518039  0.34242310    -0.02800
C1214       C  0.34200400  0.61678606  0.35373378    -0.17300
H1215       H  0.33260601  0.56298253  0.37367216     0.20700
H1216       H  0.23146139  0.52487024  0.33980069     0.19100
H1217       H  0.19662578  0.45302039  0.35393429     0.19100
H1218       H  0.36891364  0.63420714  0.35864262     0.14900
C1219       C  0.50573508  0.76656499  0.34476312     0.30400
C1220       C  0.54433575  0.77710943  0.34454649    -0.36000
C1221       C  0.56618963  0.79814973  0.35519687     0.16300
C1222       C  0.55122293  0.80860662  0.36528649     0.22200
C1223       C  0.51263860  0.79833344  0.36543746    -0.34100
C1224       C  0.49064078  0.77681508  0.35485671     0.16300
O1225       O  0.48003782  0.74605635  0.33595921    -0.26100
C1226       C  0.44793383  0.74309908  0.34039569     0.06000
C1227       C  0.45280933  0.76155465  0.35217612    -0.31000
O1228       O  0.57665026  0.82758700  0.37437284    -0.22800
C1229       C  0.60824561  0.82910992  0.37008038    -0.02800
C1230       C  0.60342466  0.81130005  0.35819042    -0.17300
H1231       H  0.55633944  0.76893239  0.33670891     0.20700
H1232       H  0.50047573  0.80603647  0.37335681     0.19100
H1233       H  0.43170275  0.76381812  0.35784258     0.19100
H1234       H  0.62424217  0.80821297  0.35263670     0.14900
C1235       C  0.11062260  0.96994390  0.30106045     0.30400
C1236       C  0.13994267  0.96140424  0.30130171    -0.36000
C1237       C  0.13990221  0.93813231  0.29126828     0.16300
C1238       C  0.11277216  0.92400244  0.28165536     0.22200
C1239       C  0.08359024  0.93292753  0.28133796    -0.34100
C1240       C  0.08374458  0.95645022  0.29137186     0.16300
O1241       O  0.10430984  0.98955585  0.30986811    -0.26100
C1242       C  0.07296191  0.98883731  0.30583704     0.06000
C1243       C  0.05915881  0.96905490  0.29426074    -0.31000
O1244       O  0.11803496  0.90233124  0.27333261    -0.22800
C1245       C  0.14905303  0.90280342  0.27766314    -0.02800
C1246       C  0.16387557  0.92470829  0.28876984    -0.17300
H1247       H  0.16100123  0.97173591  0.30890021     0.20700
H1248       H  0.06206694  0.92196816  0.27388690     0.19100
H1249       H  0.03366986  0.96315271  0.28911398     0.19100
H1250       H  0.18878675  0.93006194  0.29417217     0.14900
C1251       C  0.26650251  0.77282020  0.28854369     0.30400
C1252       C  0.26769318  0.73941878  0.29079502    -0.36000
C1253       C  0.29497072  0.74268715  0.29966871     0.16300
C1254       C  0.31904181  0.77638137  0.30608695     0.22200
C1255       C  0.31833074  0.81008470  0.30366145    -0.34100
C1256       C  0.29135547  0.80695063  0.29459729     0.16300
O1257       O  0.24295430  0.77590759  0.28068672    -0.26100
C1258       C  0.25301092  0.81255839  0.28155086     0.06000
C1259       C  0.28318173  0.83347349  0.28999197    -0.31000
O1260       O  0.34117980  0.77236068  0.31438881    -0.22800
C1261       C  0.33145229  0.73581671  0.31307527    -0.02800
C1262       C  0.30309626  0.71603773  0.30400705    -0.17300
H1263       H  0.24854204  0.71266370  0.28598239     0.20700
H1264       H  0.33732006  0.83678071  0.30854285     0.19100
H1265       H  0.29681831  0.86359335  0.29241609     0.19100
H1266       H  0.28965012  0.68612248  0.30133395     0.14900
C1267       C  0.09652165  0.16073013  0.30258230     0.30400
C1268       C  0.11059253  0.20038372  0.30344754    -0.36000
C1269       C  0.13199339  0.22262146  0.29286049     0.16300
C1270       C  0.13900412  0.20681927  0.28216947     0.22200
C1271       C  0.12488078  0.16717229  0.28132325    -0.34100
C1272       C  0.10350899  0.14496370  0.29189864     0.16300
O1273       O  0.07716768  0.13494644  0.31154304    -0.26100
C1274       C  0.07183012  0.10208741  0.30665983     0.06000
C1275       C  0.08729383  0.10664467  0.29434898    -0.31000
O1276       O  0.15974718  0.23276941  0.27339219    -0.22800
C1277       C  0.16621455  0.26578605  0.27846548    -0.02800
C1278       C  0.14961187  0.26119325  0.29059736    -0.17300
H1279       H  0.10556977  0.21306675  0.31187232     0.20700
H1280       H  0.13049151  0.15453719  0.27301698     0.19100
H1281       H  0.08803588  0.08521887  0.28830910     0.19100
H1282       H  0.15030311  0.28305118  0.29680207     0.14900
C1283       C  0.12889793  0.34956458  0.21017800     0.30400
C1284       C  0.12319190  0.34495070  0.19676115    -0.36000
C1285       C  0.09185982  0.34664148  0.19195027     0.16300
C1286       C  0.06746708  0.35159716  0.19989056     0.22200
C1287       C  0.07326283  0.35635758  0.21324121    -0.34100
C1288       C  0.10488646  0.35542045  0.21800285     0.16300
O1289       O  0.15673800  0.34979315  0.21672453    -0.26100
C1290       C  0.15055593  0.35611344  0.22886580     0.06000
C1291       C  0.11873604  0.35994224  0.23022783    -0.31000
O1292       O  0.03949209  0.35136494  0.19352035    -0.22800
C1293       C  0.04626726  0.34705729  0.18127226    -0.02800
C1294       C  0.07854142  0.34394723  0.17965991    -0.17300
H1295       H  0.14207826  0.34072651  0.19050692     0.20700
H1296       H  0.05446673  0.36074418  0.21948758     0.19100
H1297       H  0.10760863  0.36546451  0.23893517     0.19100
H1298       H  0.08977905  0.33926517  0.17082184     0.14900
C1299       C  0.28491463  0.52189261  0.28667816     0.30400
C1300       C  0.28808228  0.55797976  0.28755639    -0.36000
C1301       C  0.30768967  0.58040273  0.29831524     0.16300
C1302       C  0.32285468  0.56806093  0.30768597     0.22200
C1303       C  0.32017285  0.53209376  0.30672246    -0.34100
C1304       C  0.30084247  0.50975296  0.29585258     0.16300
O1305       O  0.26705192  0.49614646  0.27753603    -0.26100
C1306       C  0.27177188  0.46707933  0.28075204     0.06000
C1307       C  0.29284300  0.47403490  0.29203735    -0.31000
O1308       O  0.33935690  0.59350305  0.31704272    -0.22800
C1309       C  0.33491514  0.62265083  0.31356851    -0.02800
C1310       C  0.31565570  0.61610258  0.30194068    -0.17300
H1311       H  0.27589801  0.56784159  0.28035528     0.20700
H1312       H  0.33216676  0.52216618  0.31396506     0.19100
H1313       H  0.30047192  0.45523962  0.29683931     0.19100
H1314       H  0.30824043  0.63478409  0.29694966     0.14900
C1315       C  0.85636078  0.94720301  0.27927464     0.30400
C1316       C  0.89589162  0.97404006  0.27891994    -0.36000
C1317       C  0.91698400  0.97530307  0.28985730     0.16300
C1318       C  0.90014911  0.95184176  0.30035491     0.22200
C1319       C  0.86090332  0.92526995  0.30071779    -0.34100
C1320       C  0.83997551  0.92391176  0.28984881     0.16300
O1321       O  0.83103388  0.94057809  0.27014251    -0.26100
C1322       C  0.79817661  0.91258779  0.27498562     0.06000
C1323       C  0.80216142  0.90129137  0.28721397    -0.31000
O1324       O  0.92455030  0.95816051  0.30966545    -0.22800
C1325       C  0.95778211  0.98636533  0.30527863    -0.02800
C1326       C  0.95488126  0.99792031  0.29287994    -0.17300
H1327       H  0.90923489  0.99262863  0.27071965     0.20700
H1328       H  0.84753067  0.90691889  0.30897587     0.19100
H1329       H  0.78031885  0.87929793  0.29324952     0.19100
H1330       H  0.97708271  0.02057932  0.28713345     0.14900
C1331       C  0.66118619  0.94416019  0.21357486     0.30400
C1332       C  0.64481039  0.94351929  0.20156713    -0.36000
C1333       C  0.66132634  0.97864271  0.19497845     0.16300
C1334       C  0.69163989  0.01163211  0.20001548     0.22200
C1335       C  0.70777867  0.01229073  0.21191423    -0.34100
C1336       C  0.69140291  0.97754622  0.21843577     0.16300
O1337       O  0.65211280  0.91453952  0.22107767    -0.26100
C1338       C  0.67675214  0.92950540  0.23080753     0.06000
C1339       C  0.70174636  0.96855462  0.22968363    -0.31000
O1340       O  0.70301849  0.04121534  0.19247798    -0.22800
C1341       C  0.68000528  0.02761865  0.18236858    -0.02800
C1342       C  0.65327353  0.98861368  0.18328560    -0.17300
H1343       H  0.62136461  0.91744874  0.19757542     0.20700
H1344       H  0.73186672  0.03818221  0.21575456     0.19100
H1345       H  0.72546389  0.98714443  0.23587318     0.19100
H1346       H  0.63116146  0.97059809  0.17649692     0.14900
C1347       C  0.49639984  0.77987295  0.30402408     0.30400
C1348       C  0.53350902  0.81141245  0.30263337    -0.36000
C1349       C  0.55478285  0.80981753  0.29224098     0.16300
C1350       C  0.54048953  0.77930397  0.28377506     0.22200
C1351       C  0.50312773  0.74800971  0.28504666    -0.34100
C1352       C  0.48187231  0.74957966  0.29546760     0.16300
O1353       O  0.47260429  0.77432289  0.31354101    -0.26100
C1354       C  0.44244028  0.73991590  0.31112718     0.06000
C1355       C  0.44633858  0.72345398  0.29986915    -0.31000
O1356       O  0.56580814  0.78316529  0.27503079    -0.22800
C1357       C  0.59667740  0.81664888  0.27790262    -0.02800
C1358       C  0.59143508  0.83459566  0.28848995    -0.17300
H1359       H  0.54530755  0.83505445  0.30938323     0.20700
H1360       H  0.49177093  0.72374719  0.27855835     0.19100
H1361       H  0.42665542  0.69550961  0.29589513     0.19100
H1362       H  0.61179443  0.86167762  0.29285611     0.14900
C1363       C  0.68951737  0.71683814  0.19483277     0.30400
C1364       C  0.68579858  0.74853879  0.19763184    -0.36000
C1365       C  0.69148436  0.76050196  0.21051049     0.16300
C1366       C  0.69954147  0.74220433  0.22011200     0.22200
C1367       C  0.70340133  0.71048615  0.21730203    -0.34100
C1368       C  0.69834777  0.69888986  0.20434111     0.16300
O1369       O  0.68727317  0.70209710  0.18330474    -0.26100
C1370       C  0.69507182  0.67452821  0.18542168     0.06000
C1371       C  0.70217345  0.67120432  0.19832582    -0.31000
O1372       O  0.70363976  0.75847367  0.23151202    -0.22800
C1373       C  0.69867876  0.78780081  0.22904503    -0.02800
C1374       C  0.69111969  0.79044121  0.21617509    -0.17300
H1375       H  0.67968891  0.76339715  0.19021651     0.20700
H1376       H  0.71053299  0.69627960  0.22465420     0.19100
H1377       H  0.71012078  0.65191734  0.20257937     0.19100
H1378       H  0.68571689  0.81127843  0.21168217     0.14900
C1379       C  0.05259791  0.67973264  0.20487567     0.30400
C1380       C  0.05274190  0.69145406  0.21759022    -0.36000
C1381       C  0.08835611  0.71843174  0.22257709     0.16300
C1382       C  0.12170865  0.73259183  0.21557524     0.22200
C1383       C  0.12167377  0.72026396  0.20290421    -0.34100
C1384       C  0.08586545  0.69355842  0.19784439     0.16300
O1385       O  0.02201390  0.65825087  0.19794094    -0.26100
C1386       C  0.03561197  0.65812276  0.18629779     0.06000
C1387       C  0.07525132  0.67936803  0.18565046    -0.31000
O1388       O  0.15121219  0.76026374  0.22171000    -0.22800
C1389       C  0.13648552  0.76375636  0.23274476    -0.02800
C1390       C  0.09757123  0.73835769  0.23385319    -0.17300
H1391       H  0.02658339  0.68179593  0.22297490     0.20700
H1392       H  0.14746890  0.73222517  0.19716571     0.19100
H1393       H  0.09331408  0.68557985  0.17725903     0.19100
H1394       H  0.07855627  0.73639623  0.24152016     0.14900
C1395       C  0.85171935  0.58628904  0.16432817     0.30400
C1396       C  0.81922076  0.57838557  0.15733512    -0.36000
C1397       C  0.79329347  0.58568980  0.16370929     0.16300
C1398       C  0.79868469  0.59951002  0.17617554     0.22200
C1399       C  0.83058561  0.60609996  0.18334836    -0.34100
C1400       C  0.85678028  0.59914238  0.17691618     0.16300
O1401       O  0.88227466  0.58764856  0.15950959    -0.26100
C1402       C  0.90715703  0.60125709  0.16913467     0.06000
C1403       C  0.89273500  0.60842770  0.18027655    -0.31000
O1404       O  0.77412993  0.61011853  0.17946841    -0.22800
C1405       C  0.75275660  0.60279762  0.16899520    -0.02800
C1406       C  0.76311042  0.58713658  0.15896630    -0.17300
H1407       H  0.81592858  0.57015230  0.14727884     0.20700
H1408       H  0.83613317  0.61869979  0.19288153     0.19100
H1409       H  0.90778120  0.62203466  0.18908535     0.19100
H1410       H  0.75239360  0.58126831  0.14918730     0.14900
C1411       C  0.26600967  0.97962179  0.18934094     0.30400
C1412       C  0.25482739  0.98193519  0.20186381    -0.36000
C1413       C  0.25854573  0.95885237  0.21094310     0.16300
C1414       C  0.27225771  0.93486645  0.20796441     0.22200
C1415       C  0.28349798  0.93247824  0.19532118    -0.34100
C1416       C  0.27975945  0.95578604  0.18615866     0.16300
O1417       O  0.26441525  0.99868102  0.17944910    -0.26100
C1418       C  0.27716743  0.98710305  0.16969198     0.06000
C1419       C  0.28719095  0.96028917  0.17322073    -0.31000
O1420       O  0.27038960  0.91373398  0.21789225    -0.22800
C1421       C  0.25543072  0.92464157  0.22723878    -0.02800
C1422       C  0.24762922  0.95264144  0.22345047    -0.17300
H1423       H  0.24332322  0.00006148  0.20431128     0.20700
H1424       H  0.29359132  0.91324962  0.19276472     0.19100
H1425       H  0.29843750  0.94646774  0.16719247     0.19100
H1426       H  0.23329531  0.96456156  0.22886289     0.14900
C1427       C  0.34163125  0.37198966  0.22053429     0.30400
C1428       C  0.34987767  0.34885690  0.21274219    -0.36000
C1429       C  0.36160268  0.36169403  0.20011690     0.16300
C1430       C  0.36574209  0.39544801  0.19544407     0.22200
C1431       C  0.35901301  0.41943964  0.20342787    -0.34100
C1432       C  0.34645201  0.40616688  0.21601223     0.16300
O1433       O  0.32304231  0.36154289  0.23159626    -0.26100
C1434       C  0.31590536  0.38936742  0.23426867     0.06000
C1435       C  0.33020635  0.41809782  0.22497715    -0.31000
O1436       O  0.36969522  0.39811963  0.18276182    -0.22800
C1437       C  0.36790890  0.36560105  0.17932169    -0.02800
C1438       C  0.36357151  0.34229865  0.18976181    -0.17300
H1439       H  0.34380136  0.32086086  0.21588068     0.20700
H1440       H  0.35974806  0.44470172  0.19970382     0.19100
H1441       H  0.32530486  0.44185098  0.22418521     0.19100
H1442       H  0.35819070  0.31325607  0.18958552     0.14900
C1443       C  0.29892557  0.20380446  0.14139974     0.30400
C1444       C  0.29430611  0.17489496  0.13282012    -0.36000
C1445       C  0.28253452  0.13900995  0.13833540     0.16300
C1446       C  0.27509761  0.13206412  0.15134666     0.22200
C1447       C  0.27882180  0.16059317  0.15983426    -0.34100
C1448       C  0.29132638  0.19649329  0.15438461     0.16300
O1449       O  0.31428946  0.24049504  0.13867807    -0.26100
C1450       C  0.31663851  0.25664416  0.15008497     0.06000
C1451       C  0.30254758  0.23061577  0.16016851    -0.31000
O1452       O  0.26959184  0.09852421  0.15478942    -0.22800
C1453       C  0.27364390  0.08361903  0.14391306    -0.02800
C1454       C  0.28129841  0.10729132  0.13328433    -0.17300
H1455       H  0.30193925  0.18068205  0.12273913     0.20700
H1456       H  0.27494673  0.15585245  0.17012867     0.19100
H1457       H  0.30263572  0.23633840  0.17037357     0.19100
H1458       H  0.28836316  0.10324033  0.12357104     0.14900
C1459       C  0.43926889  0.82364318  0.96291525     0.30400
C1460       C  0.46404060  0.86308941  0.96442531    -0.36000
C1461       C  0.46696794  0.88591882  0.95393078     0.16300
C1462       C  0.44734506  0.87102328  0.94257286     0.22200
C1463       C  0.42234973  0.83119786  0.94104838    -0.34100
C1464       C  0.41900102  0.80822280  0.95170835     0.16300
O1465       O  0.43089745  0.79785996  0.97189246    -0.26100
C1466       C  0.40439427  0.76514247  0.96662725     0.06000
C1467       C  0.39613411  0.76964184  0.95393223    -0.31000
O1468       O  0.45440613  0.89813722  0.93408008    -0.22800
C1469       C  0.47849259  0.93062232  0.94020411    -0.02800
C1470       C  0.48718565  0.92465310  0.95257520    -0.17300
H1471       H  0.47925046  0.87522501  0.97333102     0.20700
H1472       H  0.40613138  0.81913409  0.93231297     0.19100
H1473       H  0.37514203  0.74814363  0.94754630     0.19100
H1474       H  0.50582591  0.94582344  0.95953809     0.14900
C1475       C  0.18025458  0.58921645  0.94488319     0.30400
C1476       C  0.21567758  0.59085775  0.94504268    -0.36000
C1477       C  0.24279197  0.61658193  0.95392692     0.16300
C1478       C  0.23511008  0.63855893  0.96217743     0.22200
C1479       C  0.19994731  0.63706500  0.96197079    -0.34100
C1480       C  0.17316477  0.61186566  0.95301002     0.16300
O1481       O  0.15074903  0.56731591  0.93740283    -0.26100
C1482       C  0.12459291  0.57630702  0.94074427     0.06000
C1483       C  0.13707087  0.60394669  0.95038631    -0.31000
O1484       O  0.26356995  0.65944516  0.97006384    -0.22800
C1485       C  0.29030162  0.65134175  0.96680401    -0.02800
C1486       C  0.27911741  0.62493432  0.95675029    -0.17300
H1487       H  0.22163208  0.57327491  0.93870954     0.20700
H1488       H  0.19383433  0.65428916  0.96841991     0.19100
H1489       H  0.12169876  0.61626008  0.95484446     0.19100
H1490       H  0.29476914  0.61254537  0.95255865     0.14900
C1491       C  0.48075482  0.61967716  0.94524400     0.30400
C1492       C  0.46850684  0.64640936  0.94411270    -0.36000
C1493       C  0.44482109  0.64623913  0.95407052     0.16300
C1494       C  0.43452100  0.62175821  0.96443663     0.22200
C1495       C  0.44687430  0.59536984  0.96561553    -0.34100
C1496       C  0.47005220  0.59524407  0.95565013     0.16300
O1497       O  0.50152481  0.61347807  0.93682836    -0.26100
C1498       C  0.50400008  0.58468659  0.94194944     0.06000
C1499       C  0.48500268  0.57232221  0.95366004    -0.31000
O1500       O  0.41274930  0.62645314  0.97271333    -0.22800
C1501       C  0.40864151  0.65430734  0.96772485    -0.02800
C1502       C  0.42783081  0.66764626  0.95602300    -0.17300
H1503       H  0.47642577  0.66557287  0.93596169     0.20700
H1504       H  0.43860508  0.57594991  0.97371185     0.19100
H1505       H  0.48171746  0.54901299  0.95964052     0.19100
H1506       H  0.43000537  0.69054580  0.95008353     0.14900
C1507       C  0.60236626  0.16499623  0.02596878     0.30400
C1508       C  0.63393046  0.18905083  0.01821641    -0.36000
C1509       C  0.64189991  0.22684599  0.01672541     0.16300
C1510       C  0.62051037  0.24036138  0.02252660     0.22200
C1511       C  0.58889310  0.21626989  0.03030965    -0.34100
C1512       C  0.58068591  0.17828034  0.03170193     0.16300
O1513       O  0.58962826  0.12850948  0.02852579    -0.26100
C1514       C  0.55911267  0.11803489  0.03591871     0.06000
C1515       C  0.55218142  0.14785446  0.03819723    -0.31000
O1516       O  0.63182894  0.27609990  0.01919119    -0.22800
C1517       C  0.66073080  0.28549094  0.01109156    -0.02800
C1518       C  0.66832340  0.25597741  0.00928908    -0.17300
H1519       H  0.65074346  0.17878299  0.01346181     0.20700
H1520       H  0.57137711  0.22619991  0.03473645     0.19100
H1521       H  0.52966888  0.14726847  0.04394262     0.19100
H1522       H  0.68901769  0.25544909  0.00285282     0.14900
C1523       C  0.62082611  0.03330790  0.12297261     0.30400
C1524       C  0.60011575  0.00588733  0.11338774    -0.36000
C1525       C  0.58997043  0.01934220  0.10250701     0.16300
C1526       C  0.59964277  0.05711800  0.10119385     0.22200
C1527       C  0.62050792  0.08439702  0.11064964    -0.34100
C1528       C  0.63052008  0.07100237  0.12144302     0.16300
O1529       O  0.63294202  0.02742689  0.13407824    -0.26100
C1530       C  0.65063050  0.06197021  0.13958150     0.06000
C1531       C  0.64995304  0.08995517  0.13211659    -0.31000
O1532       O  0.58592775  0.06333668  0.09062682    -0.22800
C1533       C  0.56727637  0.02921054  0.08499052    -0.02800
C1534       C  0.56881340  0.00065711  0.09190006    -0.17300
H1535       H  0.59201721  0.97611031  0.11441427     0.20700
H1536       H  0.62793795  0.11402037  0.10974432     0.19100
H1537       H  0.66214407  0.12012186  0.13426797     0.19100
H1538       H  0.55513140  0.97039694  0.08967181     0.14900
C1539       C  0.37532758  0.97503245  0.09399554     0.30400
C1540       C  0.36204141  0.96326568  0.10660448    -0.36000
C1541       C  0.33942475  0.97699813  0.11177508     0.16300
C1542       C  0.33040355  0.00049244  0.10496513     0.22200
C1543       C  0.34302569  0.01159142  0.09229578    -0.34100
C1544       C  0.36581942  0.99812011  0.08716421     0.16300
O1545       O  0.40025267  0.96922621  0.08782563    -0.26100
C1546       C  0.40660792  0.98872853  0.07691541     0.06000
C1547       C  0.38583167  0.00709756  0.07594073    -0.31000
O1548       O  0.31240736  0.01328402  0.11204779    -0.22800
C1549       C  0.30963874  0.99768048  0.12352722    -0.02800
C1550       C  0.32566482  0.97453692  0.12392956    -0.17300
H1551       H  0.37043014  0.94634773  0.11221612     0.20700
H1552       H  0.33721865  0.03107087  0.08706546     0.19100
H1553       H  0.38734209  0.02639631  0.06848035     0.19100
H1554       H  0.32891672  0.96016515  0.13216344     0.14900
C1555       C  0.45341697  0.86766765  0.02136626     0.30400
C1556       C  0.45337747  0.83325532  0.01968865    -0.36000
C1557       C  0.42973879  0.80878560  0.00989470     0.16300
C1558       C  0.40798424  0.81778901  0.00213978     0.22200
C1559       C  0.40780449  0.85211047  0.00387268    -0.34100
C1560       C  0.43110531  0.87638937  0.01379172     0.16300
O1561       O  0.47291784  0.89429920  0.03010192    -0.26100
C1562       C  0.46285530  0.92040829  0.02819756     0.06000
C1563       C  0.43677653  0.91071667  0.01819306    -0.31000
O1564       O  0.38866753  0.79112099  0.99338531    -0.22800
C1565       C  0.39801528  0.76458388  0.99561074    -0.02800
C1566       C  0.42318064  0.77388889  0.00584497    -0.17300
H1567       H  0.47048935  0.82595418  0.02567186     0.20700
H1568       H  0.39057456  0.85932484  0.99792027     0.19100
H1569       H  0.42362535  0.92645758  0.01477699     0.19100
H1570       H  0.43558292  0.75770698  0.00951780     0.14900
C1571       C  0.89411041  0.46893653  0.02627034     0.30400
C1572       C  0.87156765  0.47358694  0.01712060    -0.36000
C1573       C  0.83331175  0.44409263  0.01643017     0.16300
C1574       C  0.81802456  0.41199164  0.02415237     0.22200
C1575       C  0.84050197  0.40755215  0.03345088    -0.34100
C1576       C  0.87890404  0.43712002  0.03413924     0.16300
O1577       O  0.93079263  0.49274128  0.02836552    -0.26100
C1578       C  0.93929825  0.47603979  0.03772331     0.06000
C1579       C  0.90813915  0.44136356  0.04169358    -0.31000
O1580       O  0.78232507  0.38659856  0.02107902    -0.22800
C1581       C  0.77485660  0.40267197  0.01121434    -0.02800
C1582       C  0.80533840  0.43880702  0.00814020    -0.17300
H1583       H  0.88326025  0.49812659  0.01076736     0.20700
H1584       H  0.82913272  0.38235526  0.03949038     0.19100
H1585       H  0.90721052  0.42217248  0.04910035     0.19100
H1586       H  0.80731664  0.45761059  0.00042190     0.14900
C1587       C  0.00928712  0.62623580  0.11970172     0.30400
C1588       C  0.99639750  0.61841625  0.10692378    -0.36000
C1589       C  0.02019456  0.61422320  0.09813908     0.16300
C1590       C  0.05456058  0.61795292  0.10169572     0.22200
C1591       C  0.06795448  0.62688003  0.11440150    -0.34100
C1592       C  0.04396029  0.63066053  0.12321206     0.16300
O1593       O  0.98942580  0.62639795  0.12969655    -0.26100
C1594       C  0.01172494  0.63131312  0.13973009     0.06000
C1595       C  0.04620997  0.63449472  0.13628750    -0.31000
O1596       O  0.06938688  0.60714417  0.09250509    -0.22800
C1597       C  0.04430855  0.59636578  0.08294755    -0.02800
C1598       C  0.01332937  0.60060134  0.08582213    -0.17300
H1599       H  0.96853005  0.61329436  0.10421179     0.20700
H1600       H  0.09398811  0.62809903  0.11738922     0.19100
H1601       H  0.06843896  0.63671106  0.14255493     0.19100
H1602       H  0.98770356  0.59118863  0.08020223     0.14900
C1603       C  0.05631718  0.43688929  0.10031039     0.30400
C1604       C  0.07111325  0.43759566  0.11259532    -0.36000
C1605       C  0.04698791  0.40790873  0.12099731     0.16300
C1606       C  0.01058149  0.37981418  0.11756794     0.22200
C1607       C  0.99611024  0.37861479  0.10520299    -0.34100
C1608       C  0.02043280  0.40793295  0.09674732     0.16300
O1609       O  0.07222944  0.46398073  0.09149974    -0.26100
C1610       C  0.04658544  0.45186027  0.08205812     0.06000
C1611       C  0.01393029  0.41694708  0.08474324    -0.31000
O1612       O  0.99168095  0.35686724  0.12723268    -0.22800
C1613       C  0.01643084  0.36985861  0.13695384    -0.02800
C1614       C  0.05145048  0.40151321  0.13362305    -0.17300
H1615       H  0.09895085  0.46059210  0.11557555     0.20700
H1616       H  0.96728981  0.35709151  0.10252043     0.19100
H1617       H  0.98780778  0.40231338  0.07921075     0.19100
H1618       H  0.07579018  0.41851784  0.13978603     0.14900
C1619       C  0.17906407  0.57964007  0.01607653     0.30400
C1620       C  0.19984331  0.57394547  0.00638010    -0.36000
C1621       C  0.23523331  0.60601125  0.00310876     0.16300
C1622       C  0.24949628  0.64114825  0.00908594     0.22200
C1623       C  0.22853726  0.64696940  0.01864591    -0.34100
C1624       C  0.19296100  0.61509416  0.02178034     0.16300
O1625       O  0.14566189  0.55352644  0.02085196    -0.26100
C1626       C  0.13791697  0.57274963  0.02958679     0.06000
C1627       C  0.16625006  0.61114332  0.03051831    -0.31000
O1628       O  0.28337907  0.66704944  0.00465071    -0.22800
C1629       C  0.29067417  0.64845511  0.99556337    -0.02800
C1630       C  0.26177593  0.61037977  0.99419311    -0.17300
H1631       H  0.18919584  0.54641754  0.00171961     0.20700
H1632       H  0.23923015  0.67448099  0.02332201     0.19100
H1633       H  0.16740378  0.63274222  0.03696463     0.19100
H1634       H  0.26058099  0.58913642  0.98756093     0.14900
C1635       C  0.62248134  0.47848653  0.02457595     0.30400
C1636       C  0.65164079  0.48185531  0.01645937    -0.36000
C1637       C  0.65501295  0.44919904  0.01539705     0.16300
C1638       C  0.63160442  0.41558184  0.02193805     0.22200
C1639       C  0.60257512  0.41229550  0.03009292    -0.34100
C1640       C  0.59891087  0.44478171  0.03104030     0.16300
O1641       O  0.61393015  0.50527240  0.02694022    -0.26100
C1642       C  0.58431417  0.48829322  0.03494541     0.06000
C1643       C  0.57372363  0.45068699  0.03779402    -0.31000
O1644       O  0.63839611  0.38793622  0.01892450    -0.22800
C1645       C  0.66630598  0.40403171  0.01026778    -0.02800
C1646       C  0.67801146  0.44217197  0.00780770    -0.17300
H1647       H  0.66994127  0.50784446  0.01115274     0.20700
H1648       H  0.58357525  0.38594563  0.03511862     0.19100
H1649       H  0.55115181  0.43084190  0.04413089     0.19100
H1650       H  0.69913869  0.46128416  0.00092387     0.14900
C1651       C  0.66909774  0.61605751  0.12060104     0.30400
C1652       C  0.66790698  0.59958871  0.10864009    -0.36000
C1653       C  0.64761538  0.60537829  0.09899267     0.16300
C1654       C  0.62959047  0.62601570  0.10091040     0.22200
C1655       C  0.63122402  0.64305869  0.11293410    -0.34100
C1656       C  0.65155034  0.63707817  0.12268779     0.16300
O1657       O  0.68498095  0.61228847  0.13101781    -0.26100
C1658       C  0.67778972  0.63106954  0.14003172     0.06000
C1659       C  0.65706167  0.64729674  0.13545023    -0.31000
O1660       O  0.60864431  0.62391105  0.09089337    -0.22800
C1661       C  0.61363529  0.60179636  0.08253634    -0.02800
C1662       C  0.63782573  0.58976943  0.08704927    -0.17300
H1663       H  0.68070764  0.58218093  0.10711111     0.20700
H1664       H  0.61640567  0.65842222  0.11470270     0.19100
H1665       H  0.64711334  0.66356632  0.14074628     0.19100
H1666       H  0.64442892  0.56961196  0.08263546     0.14900
C1667       C  0.38896439  0.39988677  0.11262166     0.30400
C1668       C  0.39405742  0.39873240  0.09930100    -0.36000
C1669       C  0.41727941  0.43414043  0.09334644     0.16300
C1670       C  0.43389721  0.46839686  0.10001784     0.22200
C1671       C  0.42830870  0.46958247  0.11332863    -0.34100
C1672       C  0.40550055  0.43406494  0.11932994     0.16300
O1673       O  0.37149592  0.36996298  0.12023505    -0.26100
C1674       C  0.37686486  0.38498805  0.13199208     0.06000
C1675       C  0.39768419  0.42483052  0.13204761    -0.31000
O1676       O  0.45748800  0.49764598  0.09278992    -0.22800
C1677       C  0.45598638  0.48188872  0.08138282    -0.02800
C1678       C  0.43131859  0.44249307  0.08112342    -0.17300
H1679       H  0.38238239  0.37197076  0.09407920     0.20700
H1680       H  0.44237680  0.49611327  0.11872240     0.19100
H1681       H  0.40723664  0.44397683  0.14025471     0.19100
H1682       H  0.42644516  0.42270497  0.07333399     0.14900
C1683       C  0.41832616  0.61744775  0.00480142     0.30400
C1684       C  0.41634520  0.58399040  0.00934116    -0.36000
C1685       C  0.44869321  0.58898017  0.01581239     0.16300
C1686       C  0.48104919  0.62442164  0.01757306     0.22200
C1687       C  0.48325616  0.65787639  0.01283645    -0.34100
C1688       C  0.45065168  0.65294654  0.00651296     0.16300
O1689       O  0.39120455  0.61937266  0.99859552    -0.26100
C1690       C  0.40624834  0.65658454  0.99636968     0.06000
C1691       C  0.44314813  0.67890563  0.00104407    -0.31000
O1692       O  0.50697294  0.62261522  0.02463282    -0.22800
C1693       C  0.49090255  0.58557197  0.02743253    -0.02800
C1694       C  0.45478182  0.56328273  0.02213120    -0.17300
H1695       H  0.39098327  0.55605121  0.00815399     0.20700
H1696       H  0.50829710  0.68591738  0.01427370     0.19100
H1697       H  0.46199670  0.70957128  0.00015960     0.19100
H1698       H  0.43518076  0.53284253  0.02328884     0.14900
loop_ 
_geom_bond_atom_site_label_1 
_geom_bond_atom_site_label_2 
_geom_bond_distance 
_geom_bond_site_symmetry_2 
_ccdc_geom_bond_type 
In1           O3   2.231       .  S
In1           O4   2.262       .  S
In1          O12   2.262       .  S
In1           O6   2.241       .  S
In1           O8   2.251       .  S
In1           O9   2.231       .  S
In1          O10   2.239       .  S
In1          O13   2.262       .  S
C2            O8   1.261       .  A
C2           O10   1.257       .  A
C2         C1677   1.463       .  S
O3           C11   1.260       .  A
O4           C11   1.263       .  A
C5           O12   1.260       .  A
C5            O6   1.257       .  A
C5         C1693   1.468       .  S
C7            O9   1.259       .  A
C7           O13   1.261       .  A
C7         C1661   1.466       .  S
C11        C1642   1.469       .  S
In14         O16   2.282       .  S
In14         O17   2.243       .  S
In14         O25   2.266       .  S
In14         O19   2.246   1_455  S
In14         O21   2.246       .  S
In14         O22   2.232       .  S
In14         O23   2.269       .  S
In14         O26   2.268       .  S
C15          O21   1.256       .  A
C15          O23   1.261       .  A
C15        C1610   1.470       .  S
O16          C24   1.261       .  A
O17          C24   1.255       .  A
C18          O25   1.264   1_655  A
C18          O19   1.260       .  A
C18        C1578   1.473       .  S
C20          O22   1.255       .  A
C20          O26   1.260       .  A
C20        C1597   1.463       .  S
C24        C1626   1.473       .  S
In27         O29   2.274   1_545  S
In27         O30   2.257   1_545  S
In27         O38   2.270       .  S
In27         O32   2.254       .  S
In27         O34   2.257       .  S
In27         O35   2.243       .  S
In27         O36   2.245   1_545  S
In27         O39   2.260   1_545  S
C28          O34   1.260   1_565  A
C28          O36   1.255       .  A
C28        C1546   1.464       .  S
O29          C37   1.261       .  A
O30          C37   1.258       .  A
C31          O38   1.265       .  A
C31          O32   1.261       .  A
C31        C1514   1.480       .  S
C33          O35   1.258       .  A
C33          O39   1.259   1_545  A
C33        C1533   1.465       .  S
C37        C1562   1.477       .  S
C40          H41   1.110       .  S
C40          C46   1.550       .  S
C40          C45   1.548       .  S
C40          C44   1.549       .  S
C42          H43   1.112   1_556  S
C42          C48   1.531       .  S
C42          C47   1.532       .  S
C42          C49   1.532       .  S
C44          C47   1.374       .  D
C44        C1485   1.485       .  S
C45          C48   1.374       .  D
C45        C1501   1.492       .  S
C46          C49   1.378       .  D
C46        C1466   1.488       .  S
C47        C1629   1.481       .  S
C48        C1690   1.473       .  S
C49        C1565   1.486       .  S
C50        C1437   1.473       .  S
C50          N51   1.356       .  A
C50          N55   1.363       .  A
N51          C52   1.352       .  A
C52        C1450   1.464       .  S
C52          N53   1.352       .  A
N53          C54   1.358       .  A
C54        C1674   1.468       .  S
C54          N55   1.366       .  A
C56        C1549   1.464   1_545  S
C56          N57   1.361       .  A
C56          N61   1.362   1_545  A
N57          C58   1.356       .  A
C58        C1453   1.464       .  S
C58          N59   1.350       .  A
N59          C60   1.352       .  A
C60        C1418   1.462   1_545  S
C60          N61   1.358   1_545  A
C62        C1594   1.467   1_655  S
C62          N63   1.356       .  A
C62          N67   1.362   1_655  A
N63          C64   1.354       .  A
C64        C1402   1.463       .  S
C64          N65   1.353       .  A
N65          C66   1.356   1_655  A
C66        C1386   1.467       .  S
C66          N67   1.362       .  A
C68        C1370   1.467       .  S
C68          N69   1.360       .  A
C68          N73   1.365       .  A
N69          C70   1.354       .  A
C70        C1405   1.465       .  S
C70          N71   1.351       .  A
N71          C72   1.353       .  A
C72        C1658   1.468       .  S
C72          N73   1.361       .  A
In74         O76   2.249       .  S
In74         O77   2.266       .  S
In74         O85   2.259       .  S
In74         O79   2.272       .  S
In74         O81   2.275       .  S
In74         O82   2.234       .  S
In74         O83   2.222       .  S
In74         O86   2.243       .  S
C75          O81   1.261       .  A
C75          O83   1.254       .  A
C75        C1373   1.464       .  S
O76          C84   1.258       .  A
O77          C84   1.262       .  A
C78          O85   1.262       .  A
C78          O79   1.259       .  A
C78        C1322   1.479       .  S
C80          O82   1.257       .  A
C80          O86   1.263       .  A
C80        C1338   1.461       .  S
C84        C1357   1.473       .  S
In87         O89   2.251       .  S
In87         O90   2.278       .  S
In87         O98   2.270       .  S
In87         O92   2.290       .  S
In87         O94   2.279       .  S
In87         O95   2.265       .  S
In87         O96   2.249       .  S
In87         O99   2.242       .  S
C88          O94   1.262       .  A
C88          O96   1.253       .  A
C88        C1290   1.472       .  S
O89          C97   1.261       .  A
O90          C97   1.265       .  A
C91          O98   1.257       .  A
C91          O92   1.260       .  A
C91        C1277   1.483       .  S
C93          O95   1.263       .  A
C93          O99   1.259       .  A
C93        C1434   1.472       .  S
C97        C1306   1.481       .  S
In100       O102   2.256       .  S
In100       O103   2.260       .  S
In100       O111   2.265       .  S
In100       O105   2.233       .  S
In100       O107   2.256       .  S
In100       O108   2.231       .  S
In100       O109   2.231       .  S
In100       O112   2.256       .  S
C101        O107   1.265       .  A
C101        O109   1.256       .  A
C101       C1389   1.464       .  S
O102        C110   1.263       .  A
O103        C110   1.262       .  A
C104        O111   1.261       .  A
C104        O105   1.258       .  A
C104       C1258   1.466       .  S
C106        O108   1.257       .  A
C106        O112   1.258       .  A
C106       C1421   1.460       .  S
C110       C1245   1.476       .  S
C113        H114   1.111       .  S
C113        C119   1.534       .  S
C113        C118   1.537       .  S
C113        C117   1.535       .  S
C115        H116   1.111       .  S
C115        C121   1.541       .  S
C115        C120   1.550       .  S
C115        C122   1.554       .  S
C117        C120   1.378       .  D
C117       C1354   1.486       .  S
C118        C121   1.372       .  D
C118       C1261   1.473       .  S
C119        C122   1.374       .  D
C119       C1309   1.491       .  S
C120       C1226   1.487       .  S
C121       C1194   1.491       .  S
C122       C1213   1.488       .  S
C123       C1293   1.471       .  S
C123        N124   1.365       .  A
C123        N128   1.355   1_455  A
N124        C125   1.366       .  A
C125       C1613   1.474       .  S
C125        N126   1.357   1_455  A
N126        C127   1.354       .  A
C127       C1178   1.465       .  S
C127        N128   1.353       .  A
C129       C1341   1.464       .  S
C129        N130   1.365       .  A
C129        N134   1.352       .  A
N130        C131   1.368       .  A
C131       C1530   1.470       .  S
C131        N132   1.360       .  A
N132        C133   1.350       .  A
C133       C1181   1.461       .  S
C133        N134   1.344       .  A
In135       O137   2.258       .  S
In135       O138   2.278       .  S
In135       O146   2.248       .  S
In135       O140   2.262       .  S
In135       O142   2.233       .  S
In135       O143   2.241       .  S
In135       O144   2.273       .  S
In135       O147   2.284       .  S
C136        O142   1.255       .  A
C136        O144   1.261       .  A
C136       C1130   1.465       .  S
O137        C145   1.255       .  A
O138        C145   1.260       .  A
C139        O146   1.263       .  A
C139        O140   1.262       .  A
C139       C1114   1.475       .  S
C141        O143   1.255       .  A
C141        O147   1.260       .  A
C141       C1146   1.471       .  S
C145       C1162   1.475       .  S
In148       O150   2.248       .  S
In148       O151   2.260       .  S
In148       O159   2.263       .  S
In148       O153   2.242       .  S
In148       O155   2.250       .  S
In148       O156   2.258       .  S
In148       O157   2.237       .  S
In148       O160   2.238       .  S
C149        O155   1.262       .  A
C149        O157   1.255       .  A
C149       C1066   1.462       .  S
O150        C158   1.260       .  A
O151        C158   1.263       .  A
C152        O159   1.265       .  A
C152        O153   1.260       .  A
C152       C1050   1.473       .  S
C154        O156   1.263       .  A
C154        O160   1.258       .  A
C154       C1085   1.466       .  S
C158       C1101   1.473       .  S
In161       O163   2.257       .  S
In161       O164   2.246       .  S
In161       O172   2.241       .  S
In161       O166   2.272       .  S
In161       O168   2.223       .  S
In161       O169   2.239       .  S
In161       O170   2.271       .  S
In161       O173   2.267       .  S
C162        O168   1.257       .  A
C162        O170   1.262       .  A
C162       C1021   1.465       .  S
O163        C171   1.262       .  A
O164        C171   1.261       .  A
C165        O172   1.261       .  A
C165        O166   1.264       .  A
C165        C989   1.477       .  S
C167        O169   1.257       .  A
C167        O173   1.262       .  A
C167       C1005   1.469       .  S
C171       C1034   1.473       .  S
C174        H175   1.111       .  S
C174        C180   1.539   1_545  S
C174        C179   1.539       .  S
C174        C178   1.542       .  S
C176        H177   1.109       .  S
C176        C182   1.546       .  S
C176        C181   1.544       .  S
C176        C183   1.540   1_545  S
C178        C181   1.376       .  D
C178       C1037   1.479       .  S
C179        C182   1.376       .  D
C179       C1098   1.481   1_455  S
C180        C183   1.373       .  D
C180       C1165   1.489   1_455  S
C181        C941   1.496       .  S
C182        C957   1.497   1_455  S
C183        C970   1.475   1_455  S
C184       C1018   1.470       .  S
C184        N185   1.363       .  A
C184        N189   1.359       .  A
N185        C186   1.363       .  A
C186        C909   1.465       .  S
C186        N187   1.354       .  A
N187        C188   1.350       .  A
C188        C925   1.465       .  S
C188        N189   1.354       .  A
C190        C890   1.471       .  S
C190        N191   1.365       .  A
C190        N195   1.357       .  A
N191        C192   1.364       .  A
C192       C1082   1.474       .  S
C192        N193   1.357       .  A
N193        C194   1.353       .  A
C194        C922   1.464       .  S
C194        N195   1.351       .  A
C196        C858   1.466       .  S
C196        N197   1.360       .  A
C196        N201   1.357       .  A
N197        C198   1.359       .  A
C198       C1069   1.465       .  S
C198        N199   1.357       .  A
N199        C200   1.355       .  A
C200        C874   1.468       .  S
C200        N201   1.356       .  A
C202       C1149   1.474       .  S
C202        N203   1.365       .  A
C202        N207   1.360       .  A
N203        C204   1.361       .  A
C204        C842   1.473       .  S
C204        N205   1.356       .  A
N205        C206   1.355       .  A
C206        C877   1.470       .  S
C206        N207   1.357       .  A
C208        C810   1.467       .  S
C208        N209   1.352       .  A
C208        N213   1.363       .  A
N209        C210   1.349       .  A
C210        C826   1.458       .  S
C210        N211   1.353       .  A
N211        C212   1.357       .  A
C212       C1133   1.467       .  S
C212        N213   1.366       .  A
C214        C797   1.472       .  S
C214        N215   1.356       .  A
C214        N219   1.370       .  A
N215        C216   1.350       .  A
C216        C829   1.458       .  S
C216        N217   1.347       .  A
N217        C218   1.354       .  A
C218       C1002   1.477       .  S
C218        N219   1.369       .  A
In220       O222   2.251       .  S
In220       O223   2.282       .  S
In220       O231   2.263       .  S
In220       O225   2.262       .  S
In220       O227   2.244       .  S
In220       O228   2.282       .  S
In220       O229   2.241       .  S
In220       O232   2.232       .  S
C221        O227   1.264       .  A
C221        O229   1.259       .  A
C221        C906   1.464       .  S
O222        C230   1.256       .  A
O223        C230   1.261       .  A
C224        O231   1.262       .  A
C224        O225   1.261       .  A
C224       C1197   1.479       .  S
C226        O228   1.261       .  A
C226        O232   1.257       .  A
C226        C845   1.472       .  S
C230        C778   1.475       .  S
In233       O235   2.263       .  S
In233       O236   2.264       .  S
In233       O244   2.280       .  S
In233       O238   2.244       .  S
In233       O240   2.271       .  S
In233       O241   2.265       .  S
In233       O242   2.242       .  S
In233       O245   2.241       .  S
C234        O240   1.259       .  A
C234        O242   1.253       .  A
C234        C861   1.465       .  S
O235        C243   1.258       .  A
O236        C243   1.262       .  A
C237        O244   1.267       .  A
C237        O238   1.259       .  A
C237       C1210   1.480       .  S
C239        O241   1.259       .  A
C239        O245   1.256       .  A
C239        C794   1.466       .  S
C243        C765   1.476       .  S
In246       O248   2.254       .  S
In246       O249   2.256       .  S
In246       O257   2.261       .  S
In246       O251   2.248       .  S
In246       O253   2.251       .  S
In246       O254   2.263       .  S
In246       O255   2.249       .  S
In246       O258   2.240       .  S
C247        O253   1.259       .  A
C247        O255   1.257       .  A
C247        C813   1.465       .  S
O248        C256   1.259       .  A
O249        C256   1.261       .  A
C250        O257   1.264       .  A
C250        O251   1.260       .  A
C250       C1229   1.473       .  S
C252        O254   1.259       .  A
C252        O258   1.254       .  A
C252        C893   1.464       .  S
C256        C746   1.471       .  S
C259        H260   1.111       .  S
C259        C265   1.536   1_455  S
C259        C264   1.539       .  S
C259        C263   1.537       .  S
C261        H262   1.109       .  S
C261        C267   1.547       .  S
C261        C266   1.551       .  S
C261        C268   1.547   1_455  S
C263        C266   1.377       .  D
C263        C762   1.483       .  S
C264        C267   1.375       .  D
C264        C781   1.488   1_545  S
C265        C268   1.378       .  D
C265        C749   1.483   1_545  S
C266       C1274   1.497       .  S
C267       C1242   1.488   1_545  S
C268       C1325   1.495   1_545  S
In269       O271   2.249       .  S
In269       O272   2.254       .  S
In269       O280   2.258       .  S
In269       O274   2.240       .  S
In269       O276   2.233       .  S
In269       O277   2.258       .  S
In269       O278   2.263       .  S
In269       O281   2.225       .  S
C270        O276   1.258       .  A
C270        O278   1.263       .  A
C270        C714   1.466       .  S
O271        C279   1.262       .  A
O272        C279   1.262       .  A
C273        O280   1.263       .  A
C273        O274   1.260       .  A
C273        C973   1.469       .  S
C275        O277   1.262       .  A
C275        O281   1.257       .  A
C275        C698   1.463       .  S
C279        C730   1.473       .  S
In282       O284   2.248       .  S
In282       O285   2.254       .  S
In282       O293   2.271       .  S
In282       O287   2.258       .  S
In282       O289   2.270       .  S
In282       O290   2.235       .  S
In282       O291   2.240       .  S
In282       O294   2.267       .  S
C283        O289   1.260       .  A
C283        O291   1.254       .  A
C283        C650   1.466       .  S
O284        C292   1.259       .  A
O285        C292   1.262       .  A
C286        O293   1.261       .  A
C286        O287   1.260       .  A
C286        C938   1.478       .  S
C288        O290   1.257       .  A
C288        O294   1.262       .  A
C288        C666   1.468       .  S
C292        C685   1.470       .  S
In295       O297   2.254       .  S
In295       O298   2.260       .  S
In295       O306   2.264       .  S
In295       O300   2.280       .  S
In295       O302   2.277       .  S
In295       O303   2.279       .  S
In295       O304   2.252       .  S
In295       O307   2.244       .  S
C296        O302   1.260       .  A
C296        O304   1.255       .  A
C296        C618   1.474       .  S
O297        C305   1.262       .  A
O298        C305   1.263       .  A
C299        O306   1.260       .  A
C299        O300   1.264       .  A
C299        C954   1.485       .  S
C301        O303   1.259       .  A
C301        O307   1.257       .  A
C301        C602   1.470       .  S
C305        C634   1.475       .  S
C308        H309   1.111       .  S
C308        C314   1.535       .  S
C308        C313   1.538       .  S
C308        C312   1.547       .  S
C310        H311   1.110       .  S
C310        C316   1.541       .  S
C310        C315   1.539       .  S
C310        C317   1.541       .  S
C312        C315   1.378       .  D
C312        C733   1.485       .  S
C313        C316   1.373       .  D
C313        C637   1.484       .  S
C314        C317   1.372       .  D
C314        C682   1.476       .  S
C315       C1117   1.491       .  S
C316       C1053   1.480       .  S
C317        C986   1.483       .  S
C318        C573   1.471       .  S
C318        N319   1.367       .  A
C318        N323   1.360       .  A
N319        C320   1.362       .  A
C320        C605   1.476       .  S
C320        N321   1.355       .  A
N321        C322   1.351       .  A
C322        C586   1.466   1_545  S
C322        N323   1.354       .  A
C324        C717   1.472       .  S
C324        N325   1.358       .  A
C324        N329   1.364       .  A
N325        C326   1.352       .  A
C326        C589   1.463       .  S
C326        N327   1.351       .  A
N327        C328   1.356       .  A
C328        C557   1.469       .  S
C328        N329   1.364       .  A
C330        C653   1.469       .  S
C330        N331   1.356   1_545  A
C330        N335   1.365       .  A
N331        C332   1.353       .  A
C332        C541   1.463       .  S
C332        N333   1.355       .  A
N333        C334   1.357       .  A
C334        C525   1.473   1_565  S
C334        N335   1.362   1_565  A
C336        C701   1.470       .  S
C336        N337   1.359       .  A
C336        N341   1.367       .  A
N337        C338   1.351       .  A
C338        C538   1.461       .  S
C338        N339   1.349       .  A
N339        C340   1.354       .  A
C340        C506   1.475       .  S
C340        N341   1.364       .  A
C342        C669   1.469       .  S
C342        N343   1.354       .  A
C342        N347   1.366       .  A
N343        C344   1.347       .  A
C344        C493   1.460       .  S
C344        N345   1.351       .  A
N345        C346   1.357       .  A
C346        C477   1.470       .  S
C346        N347   1.367       .  A
C348        C458   1.466       .  S
C348        N349   1.354       .  A
C348        N353   1.362       .  A
N349        C350   1.353       .  A
C350        C490   1.463       .  S
C350        N351   1.355       .  A
N351        C352   1.359       .  A
C352        C621   1.474       .  S
C352        N353   1.363       .  A
In354       O356   2.253       .  S
In354       O357   2.274       .  S
In354       O365   2.257       .  S
In354       O359   2.266       .  S
In354       O361   2.253       .  S
In354       O362   2.242       .  S
In354       O363   2.233       .  S
In354       O366   2.262       .  S
C355        O361   1.264       .  A
C355        O363   1.258       .  A
C355        C554   1.464       .  S
O356        C364   1.257       .  A
O357        C364   1.260       .  A
C358        O365   1.262       .  A
C358        O359   1.260       .  A
C358       C1498   1.477       .  S
C360        O362   1.257       .  A
C360        O366   1.258       .  A
C360        C474   1.466       .  S
C364        C442   1.473       .  S
In367       O369   2.287       .  S
In367       O370   2.238       .  S
In367       O378   2.261   1_545  S
In367       O372   2.257   1_545  S
In367       O374   2.260       .  S
In367       O375   2.240       .  S
In367       O376   2.257       .  S
In367       O379   2.266       .  S
C368        O374   1.259       .  A
C368        O376   1.258       .  A
C368        C522   1.471       .  S
O369        C377   1.263       .  A
O370        C377   1.257       .  A
C371        O378   1.264       .  A
C371        O372   1.259       .  A
C371       C1469   1.475       .  S
C373        O375   1.256       .  A
C373        O379   1.260       .  A
C373        C570   1.465       .  S
C377        C426   1.476       .  S
In380       O382   2.260   1_455  S
In380       O383   2.267   1_455  S
In380       O391   2.249       .  S
In380       O385   2.268       .  S
In380       O387   2.253       .  S
In380       O388   2.255   1_455  S
In380       O389   2.234   1_455  S
In380       O392   2.265       .  S
C381        O387   1.260       .  A
C381        O389   1.256   1_455  A
C381        C461   1.461       .  S
O382        C390   1.259       .  A
O383        C390   1.259       .  A
C384        O391   1.260       .  A
C384        O385   1.267       .  A
C384       C1482   1.478       .  S
C386        O388   1.257   1_455  A
C386        O392   1.259       .  A
C386        C509   1.470       .  S
C390        C410   1.475       .  S
C393        H394   1.111       .  S
C393        C399   1.547       .  S
C393        C398   1.544       .  S
C393        C397   1.542       .  S
C395        H396   1.111       .  S
C395        C401   1.533       .  S
C395        C400   1.538       .  S
C395        C402   1.532       .  S
C397        C400   1.375   1_554  D
C397       C1517   1.489       .  S
C398        C401   1.373   1_554  D
C398       C1645   1.478       .  S
C399        C402   1.377   1_554  D
C399       C1581   1.486       .  S
C400        C429   1.482       .  S
C401        C445   1.482       .  S
C402        C413   1.483       .  S
C403        C408   1.380       .  A
C403        C404   1.404       .  A
C403        O409   1.321       .  A
C404        C405   1.403       .  A
C404        H415   1.082       .  S
C405        C414   1.363       .  A
C405        C406   1.380       .  A
C406        C407   1.407       .  A
C406        O412   1.322       .  A
C407        C408   1.407       .  A
C407        H416   1.082       .  S
C408        C411   1.366       .  A
O409        C410   1.331       .  A
C410        C411   1.393       .  A
C411        H417   1.082       .  S
O412        C413   1.332       .  A
C413        C414   1.391       .  A
C414        H418   1.082       .  S
C419        C424   1.380       .  A
C419        C420   1.406       .  A
C419        O425   1.325       .  A
C420        C421   1.406       .  A
C420        H431   1.082       .  S
C421        C430   1.362       .  A
C421        C422   1.380       .  A
C422        C423   1.403       .  A
C422        O428   1.321       .  A
C423        C424   1.404       .  A
C423        H432   1.082       .  S
C424        C427   1.359       .  A
O425        C426   1.333       .  A
C426        C427   1.391       .  A
C427        H433   1.083       .  S
O428        C429   1.330       .  A
C429        C430   1.393       .  A
C430        H434   1.082       .  S
C435        C440   1.380       .  A
C435        C436   1.404       .  A
C435        O441   1.319       .  A
C436        C437   1.402       .  A
C436        H447   1.082       .  S
C437        C446   1.362       .  A
C437        C438   1.380       .  A
C438        C439   1.407       .  A
C438        O444   1.321       .  A
C439        C440   1.406       .  A
C439        H448   1.082       .  S
C440        C443   1.367       .  A
O441        C442   1.331       .  A
C442        C443   1.392       .  A
C443        H449   1.082       .  S
O444        C445   1.333       .  A
C445        C446   1.389       .  A
C446        H450   1.082       .  S
C451        C456   1.380       .  A
C451        C452   1.402       .  A
C451        O457   1.316       .  A
C452        C453   1.401       .  A
C452        H463   1.082       .  S
C453        C462   1.361       .  A
C453        C454   1.381       .  A
C454        C455   1.403   1_455  A
C454        O460   1.316   1_455  A
C455        C456   1.401   1_655  A
C455        H464   1.082       .  S
C456        C459   1.364       .  A
O457        C458   1.331       .  A
C458        C459   1.389       .  A
C459        H465   1.082   1_455  S
O460        C461   1.330   1_655  A
C461        C462   1.390       .  A
C462        H466   1.082       .  S
C467        C472   1.380       .  A
C467        C468   1.408       .  A
C467        O473   1.321       .  A
C468        C469   1.406       .  A
C468        H479   1.083       .  S
C469        C478   1.370       .  A
C469        C470   1.380       .  A
C470        C471   1.399       .  A
C470        O476   1.312       .  A
C471        C472   1.397       .  A
C471        H480   1.083       .  S
C472        C475   1.357       .  A
O473        C474   1.333       .  A
C474        C475   1.388       .  A
C475        H481   1.083       .  S
O476        C477   1.329       .  A
C477        C478   1.393       .  A
C478        H482   1.082       .  S
C483        C488   1.382       .  A
C483        C484   1.400       .  A
C483        O489   1.314       .  A
C484        C485   1.398       .  A
C484        H495   1.082       .  S
C485        C494   1.359       .  A
C485        C486   1.381       .  A
C486        C487   1.401       .  A
C486        O492   1.314       .  A
C487        C488   1.400       .  A
C487        H496   1.082       .  S
C488        C491   1.360       .  A
O489        C490   1.329       .  A
C490        C491   1.390       .  A
C491        H497   1.083       .  S
O492        C493   1.329       .  A
C493        C494   1.388       .  A
C494        H498   1.083       .  S
C499        C504   1.380       .  A
C499        C500   1.407       .  A
C499        O505   1.326       .  A
C500        C501   1.409       .  A
C500        H511   1.084   1_455  S
C501        C510   1.364       .  A
C501        C502   1.381       .  A
C502        C503   1.398       .  A
C502        O508   1.318       .  A
C503        C504   1.399       .  A
C503        H512   1.084       .  S
C504        C507   1.352       .  A
O505        C506   1.333       .  A
C506        C507   1.391       .  A
C507        H513   1.084       .  S
O508        C509   1.328       .  A
C509        C510   1.394       .  A
C510        H514   1.083   1_455  S
C515        C520   1.381       .  A
C515        C516   1.402   1_545  A
C515        O521   1.319       .  A
C516        C517   1.402       .  A
C516        H527   1.083       .  S
C517        C526   1.358       .  A
C517        C518   1.381   1_565  A
C518        C519   1.406       .  A
C518        O524   1.323       .  A
C519        C520   1.406       .  A
C519        H528   1.083       .  S
C520        C523   1.365       .  A
O521        C522   1.330       .  A
C522        C523   1.393       .  A
C523        H529   1.083       .  S
O524        C525   1.331       .  A
C525        C526   1.391   1_545  A
C526        H530   1.083       .  S
C531        C536   1.381       .  A
C531        C532   1.397       .  A
C531        O537   1.312       .  A
C532        C533   1.396       .  A
C532        H543   1.082       .  S
C533        C542   1.357       .  A
C533        C534   1.382       .  A
C534        C535   1.403       .  A
C534        O540   1.317       .  A
C535        C536   1.401       .  A
C535        H544   1.082       .  S
C536        C539   1.363       .  A
O537        C538   1.327       .  A
C538        C539   1.391       .  A
C539        H545   1.083       .  S
O540        C541   1.330       .  A
C541        C542   1.388       .  A
C542        H546   1.083       .  S
C547        C552   1.382       .  A
C547        C548   1.398       .  A
C547        O553   1.318       .  A
C548        C549   1.399       .  A
C548        H559   1.083       .  S
C549        C558   1.353       .  A
C549        C550   1.381       .  A
C550        C551   1.404       .  A
C550        O556   1.322       .  A
C551        C552   1.404       .  A
C551        H560   1.083       .  S
C552        C555   1.360       .  A
O553        C554   1.328       .  A
C554        C555   1.392       .  A
C555        H561   1.083       .  S
O556        C557   1.331       .  A
C557        C558   1.391       .  A
C558        H562   1.083       .  S
C563        C568   1.381       .  A
C563        C564   1.403       .  A
C563        O569   1.317       .  A
C564        C565   1.401       .  A
C564        H575   1.083       .  S
C565        C574   1.363       .  A
C565        C566   1.380       .  A
C566        C567   1.405       .  A
C566        O572   1.318       .  A
C567        C568   1.403       .  A
C567        H576   1.083       .  S
C568        C571   1.364       .  A
O569        C570   1.330       .  A
C570        C571   1.391       .  A
C571        H577   1.083       .  S
O572        C573   1.332       .  A
C573        C574   1.390       .  A
C574        H578   1.083       .  S
C579        C584   1.381       .  A
C579        C580   1.402       .  A
C579        O585   1.319       .  A
C580        C581   1.402       .  A
C580        H591   1.082       .  S
C581        C590   1.359       .  A
C581        C582   1.382       .  A
C582        C583   1.399       .  A
C582        O588   1.316       .  A
C583        C584   1.399       .  A
C583        H592   1.082       .  S
C584        C587   1.355       .  A
O585        C586   1.330       .  A
C586        C587   1.390       .  A
C587        H593   1.083       .  S
O588        C589   1.328       .  A
C589        C590   1.391       .  A
C590        H594   1.083       .  S
C595        C600   1.381       .  A
C595        C596   1.397       .  A
C595        O601   1.315       .  A
C596        C597   1.397       .  A
C596        H607   1.084       .  S
C597        C606   1.352       .  A
C597        C598   1.380       .  A
C598        C599   1.410       .  A
C598        O604   1.327       .  A
C599        C600   1.411       .  A
C599        H608   1.084       .  S
C600        C603   1.369       .  A
O601        C602   1.328       .  A
C602        C603   1.395       .  A
C603        H609   1.083       .  S
O604        C605   1.335       .  A
C605        C606   1.390       .  A
C606        H610   1.084       .  S
C611        C616   1.381       .  A
C611        C612   1.403   1_655  A
C611        O617   1.321       .  A
C612        C613   1.403       .  A
C612        H623   1.082       .  S
C613        C622   1.359       .  A
C613        C614   1.380   1_455  A
C614        C615   1.405       .  A
C614        O620   1.323       .  A
C615        C616   1.406       .  A
C615        H624   1.082       .  S
C616        C619   1.363       .  A
O617        C618   1.331       .  A
C618        C619   1.393       .  A
C619        H625   1.082       .  S
O620        C621   1.332   1_655  A
C621        C622   1.392       .  A
C622        H626   1.083       .  S
C627        C632   1.380       .  A
C627        C628   1.404       .  A
C627        O633   1.321       .  A
C628        C629   1.403       .  A
C628        H639   1.082       .  S
C629        C638   1.361       .  A
C629        C630   1.380       .  A
C630        C631   1.408       .  A
C630        O636   1.323       .  A
C631        C632   1.407       .  A
C631        H640   1.082       .  S
C632        C635   1.366       .  A
O633        C634   1.331       .  A
C634        C635   1.393       .  A
C635        H641   1.082       .  S
O636        C637   1.333       .  A
C637        C638   1.391       .  A
C638        H642   1.083       .  S
C643        C648   1.381       .  A
C643        C644   1.403       .  A
C643        O649   1.316       .  A
C644        C645   1.400       .  A
C644        H655   1.083       .  S
C645        C654   1.363       .  A
C645        C646   1.380       .  A
C646        C647   1.404       .  A
C646        O652   1.317       .  A
C647        C648   1.402       .  A
C647        H656   1.083       .  S
C648        C651   1.364       .  A
O649        C650   1.330       .  A
C650        C651   1.391       .  A
C651        H657   1.083       .  S
O652        C653   1.332       .  A
C653        C654   1.390       .  A
C654        H658   1.083       .  S
C659        C664   1.382       .  A
C659        C660   1.399       .  A
C659        O665   1.319       .  A
C660        C661   1.400       .  A
C660        H671   1.083       .  S
C661        C670   1.352       .  A
C661        C662   1.381       .  A
C662        C663   1.404       .  A
C662        O668   1.324       .  A
C663        C664   1.406       .  A
C663        H672   1.082       .  S
C664        C667   1.360       .  A
O665        C666   1.329       .  A
C666        C667   1.392       .  A
C667        H673   1.082       .  S
O668        C669   1.331       .  A
C669        C670   1.391       .  A
C670        H674   1.083       .  S
C675        C680   1.381       .  A
C675        C676   1.403       .  A
C675        O681   1.318       .  A
C676        C677   1.402       .  A
C676        H687   1.082       .  S
C677        C686   1.362       .  A
C677        C678   1.380       .  A
C678        C679   1.406       .  A
C678        O684   1.320       .  A
C679        C680   1.404       .  A
C679        H688   1.082       .  S
C680        C683   1.365       .  A
O681        C682   1.330       .  A
C682        C683   1.390       .  A
C683        H689   1.082       .  S
O684        C685   1.332       .  A
C685        C686   1.390       .  A
C686        H690   1.082       .  S
C691        C696   1.382       .  A
C691        C692   1.400   1_655  A
C691        O697   1.319       .  A
C692        C693   1.401       .  A
C692        H703   1.084       .  S
C693        C702   1.355       .  A
C693        C694   1.381       .  A
C694        C695   1.402   1_455  A
C694        O700   1.321       .  A
C695        C696   1.403       .  A
C695        H704   1.084       .  S
C696        C699   1.358       .  A
O697        C698   1.329       .  A
C698        C699   1.390       .  A
C699        H705   1.083       .  S
O700        C701   1.330       .  A
C701        C702   1.392       .  A
C702        H706   1.083       .  S
C707        C712   1.381       .  A
C707        C708   1.398       .  A
C707        O713   1.316       .  A
C708        C709   1.398       .  A
C708        H719   1.083       .  S
C709        C718   1.353       .  A
C709        C710   1.380       .  A
C710        C711   1.408       .  A
C710        O716   1.325       .  A
C711        C712   1.408       .  A
C711        H720   1.082       .  S
C712        C715   1.366       .  A
O713        C714   1.328       .  A
C714        C715   1.393       .  A
C715        H721   1.083       .  S
O716        C717   1.333       .  A
C717        C718   1.389       .  A
C718        H722   1.083       .  S
C723        C728   1.380       .  A
C723        C724   1.405       .  A
C723        O729   1.320       .  A
C724        C725   1.404       .  A
C724        H735   1.083       .  S
C725        C734   1.365       .  A
C725        C726   1.380       .  A
C726        C727   1.406       .  A
C726        O732   1.320       .  A
C727        C728   1.405       .  A
C727        H736   1.083       .  S
C728        C731   1.365       .  A
O729        C730   1.331       .  A
C730        C731   1.393       .  A
C731        H737   1.083       .  S
O732        C733   1.333       .  A
C733        C734   1.390       .  A
C734        H738   1.083       .  S
C739        C744   1.380       .  A
C739        C740   1.407       .  A
C739        O745   1.321       .  A
C740        C741   1.406       .  A
C740        H751   1.082       .  S
C741        C750   1.366       .  A
C741        C742   1.380       .  A
C742        C743   1.403       .  A
C742        O748   1.318       .  A
C743        C744   1.402       .  A
C743        H752   1.082       .  S
C744        C747   1.363       .  A
O745        C746   1.332       .  A
C746        C747   1.390       .  A
C747        H753   1.082       .  S
O748        C749   1.331       .  A
C749        C750   1.392       .  A
C750        H754   1.082       .  S
C755        C760   1.380       .  A
C755        C756   1.402       .  A
C755        O761   1.318       .  A
C756        C757   1.401       .  A
C756        H767   1.084       .  S
C757        C766   1.362       .  A
C757        C758   1.380       .  A
C758        C759   1.409       .  A
C758        O764   1.323       .  A
C759        C760   1.408       .  A
C759        H768   1.083       .  S
C760        C763   1.368       .  A
O761        C762   1.330       .  A
C762        C763   1.393       .  A
C763        H769   1.083       .  S
O764        C765   1.335       .  A
C765        C766   1.389       .  A
C766        H770   1.083       .  S
C771        C776   1.380       .  A
C771        C772   1.404       .  A
C771        O777   1.319       .  A
C772        C773   1.403       .  A
C772        H783   1.084   1_565  S
C773        C782   1.364   1_565  A
C773        C774   1.380       .  A
C774        C775   1.409       .  A
C774        O780   1.323       .  A
C775        C776   1.408       .  A
C775        H784   1.084       .  S
C776        C779   1.369       .  A
O777        C778   1.331       .  A
C778        C779   1.393       .  A
C779        H785   1.083       .  S
O780        C781   1.335       .  A
C781        C782   1.390   1_565  A
C782        H786   1.083       .  S
C787        C792   1.380       .  A
C787        C788   1.406       .  A
C787        O793   1.317       .  A
C788        C789   1.403       .  A
C788        H799   1.084       .  S
C789        C798   1.370       .  A
C789        C790   1.380       .  A
C790        C791   1.403       .  A
C790        O796   1.314       .  A
C791        C792   1.400       .  A
C791        H800   1.084       .  S
C792        C795   1.363       .  A
O793        C794   1.331       .  A
C794        C795   1.391       .  A
C795        H801   1.084       .  S
O796        C797   1.331       .  A
C797        C798   1.392       .  A
C798        H802   1.083       .  S
C803        C808   1.380       .  A
C803        C804   1.400       .  A
C803        O809   1.312       .  A
C804        C805   1.397       .  A
C804        H815   1.081       .  S
C805        C814   1.359       .  A
C805        C806   1.380       .  A
C806        C807   1.407       .  A
C806        O812   1.319       .  A
C807        C808   1.405       .  A
C807        H816   1.081       .  S
C808        C811   1.368       .  A
O809        C810   1.329       .  A
C810        C811   1.392       .  A
C811        H817   1.083       .  S
O812        C813   1.332       .  A
C813        C814   1.388       .  A
C814        H818   1.082       .  S
C819        C824   1.381       .  A
C819        C820   1.399       .  A
C819        O825   1.312       .  A
C820        C821   1.397       .  A
C820        H831   1.083       .  S
C821        C830   1.358       .  A
C821        C822   1.382       .  A
C822        C823   1.400       .  A
C822        O828   1.313       .  A
C823        C824   1.398       .  A
C823        H832   1.083       .  S
C824        C827   1.360       .  A
O825        C826   1.328       .  A
C826        C827   1.389       .  A
C827        H833   1.083       .  S
O828        C829   1.328       .  A
C829        C830   1.388       .  A
C830        H834   1.083       .  S
C835        C840   1.380       .  A
C835        C836   1.398       .  A
C835        O841   1.314       .  A
C836        C837   1.397       .  A
C836        H847   1.083       .  S
C837        C846   1.355       .  A
C837        C838   1.380       .  A
C838        C839   1.411       .  A
C838        O844   1.325       .  A
C839        C840   1.410       .  A
C839        H848   1.083       .  S
C840        C843   1.371       .  A
O841        C842   1.328       .  A
C842        C843   1.396       .  A
C843        H849   1.082       .  S
O844        C845   1.335       .  A
C845        C846   1.388       .  A
C846        H850   1.083       .  S
C851        C856   1.381       .  A
C851        C852   1.401       .  A
C851        O857   1.316       .  A
C852        C853   1.400       .  A
C852        H863   1.082       .  S
C853        C862   1.362       .  A
C853        C854   1.381       .  A
C854        C855   1.404       .  A
C854        O860   1.317       .  A
C855        C856   1.402       .  A
C855        H864   1.082       .  S
C856        C859   1.363       .  A
O857        C858   1.329       .  A
C858        C859   1.391       .  A
C859        H865   1.083       .  S
O860        C861   1.331       .  A
C861        C862   1.389       .  A
C862        H866   1.082       .  S
C867        C872   1.382       .  A
C867        C868   1.400       .  A
C867        O873   1.317       .  A
C868        C869   1.400       .  A
C868        H879   1.084       .  S
C869        C878   1.358       .  A
C869        C870   1.382       .  A
C870        C871   1.402       .  A
C870        O876   1.319       .  A
C871        C872   1.402       .  A
C871        H880   1.084       .  S
C872        C875   1.361       .  A
O873        C874   1.329       .  A
C874        C875   1.391       .  A
C875        H881   1.083       .  S
O876        C877   1.330       .  A
C877        C878   1.391       .  A
C878        H882   1.084       .  S
C883        C888   1.381       .  A
C883        C884   1.404       .  A
C883        O889   1.322       .  A
C884        C885   1.405       .  A
C884        H895   1.082       .  S
C885        C894   1.360   1_545  A
C885        C886   1.381       .  A
C886        C887   1.399       .  A
C886        O892   1.318   1_545  A
C887        C888   1.400       .  A
C887        H896   1.083       .  S
C888        C891   1.354       .  A
O889        C890   1.331       .  A
C890        C891   1.391       .  A
C891        H897   1.083       .  S
O892        C893   1.328       .  A
C893        C894   1.391       .  A
C894        H898   1.083       .  S
C899        C904   1.380       .  A
C899        C900   1.407       .  A
C899        O905   1.319   1_545  A
C900        C901   1.405       .  A
C900        H911   1.083       .  S
C901        C910   1.369       .  A
C901        C902   1.381       .  A
C902        C903   1.398       .  A
C902        O908   1.310       .  A
C903        C904   1.395       .  A
C903        H912   1.084       .  S
C904        C907   1.358   1_545  A
O905        C906   1.333       .  A
C906        C907   1.386       .  A
C907        H913   1.083       .  S
O908        C909   1.328       .  A
C909        C910   1.393       .  A
C910        H914   1.083       .  S
C915        C920   1.382       .  A
C915        C916   1.402       .  A
C915        O921   1.318       .  A
C916        C917   1.402       .  A
C916        H927   1.083       .  S
C917        C926   1.359       .  A
C917        C918   1.382       .  A
C918        C919   1.399       .  A
C918        O924   1.316       .  A
C919        C920   1.398       .  A
C919        H928   1.083       .  S
C920        C923   1.357       .  A
O921        C922   1.330       .  A
C922        C923   1.388       .  A
C923        H929   1.083       .  S
O924        C925   1.328       .  A
C925        C926   1.392       .  A
C926        H930   1.083       .  S
C931        C936   1.380       .  A
C931        C932   1.406       .  A
C931        O937   1.321       .  A
C932        C933   1.405       .  A
C932        H943   1.082       .  S
C933        C942   1.366       .  A
C933        C934   1.378       .  A
C934        C935   1.408       .  A
C934        O940   1.320       .  A
C935        C936   1.406       .  A
C935        H944   1.083       .  S
C936        C939   1.368       .  A
O937        C938   1.332       .  A
C938        C939   1.394       .  A
C939        H945   1.083       .  S
O940        C941   1.335       .  A
C941        C942   1.394       .  A
C942        H946   1.082       .  S
C947        C952   1.379       .  A
C947        C948   1.410       .  A
C947        O953   1.324       .  A
C948        C949   1.408       .  A
C948        H959   1.084       .  S
C949        C958   1.371       .  A
C949        C950   1.379       .  A
C950        C951   1.407       .  A
C950        O956   1.320       .  A
C951        C952   1.406       .  A
C951        H960   1.084       .  S
C952        C955   1.368       .  A
O953        C954   1.335       .  A
C954        C955   1.393       .  A
C955        H961   1.083       .  S
O956        C957   1.334       .  A
C957        C958   1.395       .  A
C958        H962   1.083   1_655  S
C963        C968   1.381       .  A
C963        C964   1.404       .  A
C963        O969   1.319       .  A
C964        C965   1.403       .  A
C964        H975   1.083       .  S
C965        C974   1.364       .  A
C965        C966   1.381       .  A
C966        C967   1.403       .  A
C966        O972   1.318       .  A
C967        C968   1.401       .  A
C967        H976   1.083   1_655  S
C968        C971   1.361   1_655  A
O969        C970   1.331       .  A
C970        C971   1.388   1_655  A
C971        H977   1.083       .  S
O972        C973   1.330       .  A
C973        C974   1.391       .  A
C974        H978   1.083       .  S
C979        C984   1.381       .  A
C979        C980   1.404       .  A
C979        O985   1.322       .  A
C980        C981   1.404       .  A
C980        H991   1.083       .  S
C981        C990   1.361       .  A
C981        C982   1.380       .  A
C982        C983   1.407       .  A
C982        O988   1.324       .  A
C983        C984   1.407       .  A
C983        H992   1.083       .  S
C984        C987   1.363       .  A
O985        C986   1.330       .  A
C986        C987   1.393       .  A
C987        H993   1.083       .  S
O988        C989   1.333       .  A
C989        C990   1.391       .  A
C990        H994   1.083       .  S
C995       C1000   1.381       .  A
C995        C996   1.405       .  A
C995       O1001   1.326       .  A
C996        C997   1.407       .  A
C996       H1007   1.084       .  S
C997       C1006   1.361       .  A
C997        C998   1.381       .  A
C998        C999   1.400       .  A
C998       O1004   1.320       .  A
C999       C1000   1.401       .  A
C999       H1008   1.084       .  S
C1000      C1003   1.352       .  A
O1001      C1002   1.332       .  A
C1002      C1003   1.393       .  A
C1003      H1009   1.084       .  S
O1004      C1005   1.329       .  A
C1005      C1006   1.392       .  A
C1006      H1010   1.083       .  S
C1011      C1016   1.380       .  A
C1011      C1012   1.407       .  A
C1011      O1017   1.323       .  A
C1012      C1013   1.407       .  A
C1012      H1023   1.084       .  S
C1013      C1022   1.367       .  A
C1013      C1014   1.381       .  A
C1014      C1015   1.398       .  A
C1014      O1020   1.313       .  A
C1015      C1016   1.397       .  A
C1015      H1024   1.084       .  S
C1016      C1019   1.355       .  A
O1017      C1018   1.333       .  A
C1018      C1019   1.389       .  A
C1019      H1025   1.084       .  S
O1020      C1021   1.328       .  A
C1021      C1022   1.393       .  A
C1022      H1026   1.083       .  S
C1027      C1032   1.380       .  A
C1027      C1028   1.406       .  A
C1027      O1033   1.321       .  A
C1028      C1029   1.405       .  A
C1028      H1039   1.082       .  S
C1029      C1038   1.366       .  A
C1029      C1030   1.380       .  A
C1030      C1031   1.404       .  A
C1030      O1036   1.319       .  A
C1031      C1032   1.404       .  A
C1031      H1040   1.082       .  S
C1032      C1035   1.363       .  A
O1033      C1034   1.332       .  A
C1034      C1035   1.392       .  A
C1035      H1041   1.083       .  S
O1036      C1037   1.331       .  A
C1037      C1038   1.390       .  A
C1038      H1042   1.082       .  S
C1043      C1048   1.380       .  A
C1043      C1044   1.405       .  A
C1043      O1049   1.319       .  A
C1044      C1045   1.403       .  A
C1044      H1055   1.082       .  S
C1045      C1054   1.364       .  A
C1045      C1046   1.380       .  A
C1046      C1047   1.405       .  A
C1046      O1052   1.319       .  A
C1047      C1048   1.404       .  A
C1047      H1056   1.082       .  S
C1048      C1051   1.365       .  A
O1049      C1050   1.332       .  A
C1050      C1051   1.391       .  A
C1051      H1057   1.082       .  S
O1052      C1053   1.332       .  A
C1053      C1054   1.389       .  A
C1054      H1058   1.082       .  S
C1059      C1064   1.381   1_655  A
C1059      C1060   1.405   1_655  A
C1059      O1065   1.318       .  A
C1060      C1061   1.404       .  A
C1060      H1071   1.083   1_455  S
C1061      C1070   1.365       .  A
C1061      C1062   1.381       .  A
C1062      C1063   1.398       .  A
C1062      O1068   1.313       .  A
C1063      C1064   1.397       .  A
C1063      H1072   1.082       .  S
C1064      C1067   1.358   1_455  A
O1065      C1066   1.332       .  A
C1066      C1067   1.386       .  A
C1067      H1073   1.082       .  S
O1068      C1069   1.328       .  A
C1069      C1070   1.393       .  A
C1070      H1074   1.083       .  S
C1075      C1080   1.380       .  A
C1075      C1076   1.406       .  A
C1075      O1081   1.324       .  A
C1076      C1077   1.406       .  A
C1076      H1087   1.083       .  S
C1077      C1086   1.364       .  A
C1077      C1078   1.381       .  A
C1078      C1079   1.400       .  A
C1078      O1084   1.317       .  A
C1079      C1080   1.400       .  A
C1079      H1088   1.084       .  S
C1080      C1083   1.355       .  A
O1081      C1082   1.332       .  A
C1082      C1083   1.391       .  A
C1083      H1089   1.083       .  S
O1084      C1085   1.329       .  A
C1085      C1086   1.392       .  A
C1086      H1090   1.083       .  S
C1091      C1096   1.381       .  A
C1091      C1092   1.406       .  A
C1091      O1097   1.322       .  A
C1092      C1093   1.405       .  A
C1092      H1103   1.083       .  S
C1093      C1102   1.365       .  A
C1093      C1094   1.380       .  A
C1094      C1095   1.404       .  A
C1094      O1100   1.320       .  A
C1095      C1096   1.403       .  A
C1095      H1104   1.083       .  S
C1096      C1099   1.362   1_655  A
O1097      C1098   1.331       .  A
C1098      C1099   1.391   1_655  A
C1099      H1105   1.083       .  S
O1100      C1101   1.331       .  A
C1101      C1102   1.392       .  A
C1102      H1106   1.083       .  S
C1107      C1112   1.380       .  A
C1107      C1108   1.409       .  A
C1107      O1113   1.323       .  A
C1108      C1109   1.408       .  A
C1108      H1119   1.083       .  S
C1109      C1118   1.368       .  A
C1109      C1110   1.379       .  A
C1110      C1111   1.402       .  A
C1110      O1116   1.316       .  A
C1111      C1112   1.401       .  A
C1111      H1120   1.083       .  S
C1112      C1115   1.361       .  A
O1113      C1114   1.334       .  A
C1114      C1115   1.390       .  A
C1115      H1121   1.083       .  S
O1116      C1117   1.331       .  A
C1117      C1118   1.395       .  A
C1118      H1122   1.082       .  S
C1123      C1128   1.381       .  A
C1123      C1124   1.402       .  A
C1123      O1129   1.315       .  A
C1124      C1125   1.400       .  A
C1124      H1135   1.083       .  S
C1125      C1134   1.363       .  A
C1125      C1126   1.380       .  A
C1126      C1127   1.404       .  A
C1126      O1132   1.316       .  A
C1127      C1128   1.402       .  A
C1127      H1136   1.083       .  S
C1128      C1131   1.365       .  A
O1129      C1130   1.329       .  A
C1130      C1131   1.391       .  A
C1131      H1137   1.083       .  S
O1132      C1133   1.331       .  A
C1133      C1134   1.389       .  A
C1134      H1138   1.083       .  S
C1139      C1144   1.380       .  A
C1139      C1140   1.402   1_655  A
C1139      O1145   1.316       .  A
C1140      C1141   1.400       .  A
C1140      H1151   1.082       .  S
C1141      C1150   1.361       .  A
C1141      C1142   1.380       .  A
C1142      C1143   1.408       .  A
C1142      O1148   1.321       .  A
C1143      C1144   1.406   1_455  A
C1143      H1152   1.082       .  S
C1144      C1147   1.368       .  A
O1145      C1146   1.330       .  A
C1146      C1147   1.393       .  A
C1147      H1153   1.082       .  S
O1148      C1149   1.334       .  A
C1149      C1150   1.390       .  A
C1150      H1154   1.082       .  S
C1155      C1160   1.380       .  A
C1155      C1156   1.408       .  A
C1155      O1161   1.321       .  A
C1156      C1157   1.406       .  A
C1156      H1167   1.084       .  S
C1157      C1166   1.368       .  A
C1157      C1158   1.380       .  A
C1158      C1159   1.405       .  A
C1158      O1164   1.319       .  A
C1159      C1160   1.404       .  A
C1159      H1168   1.084       .  S
C1160      C1163   1.366       .  A
O1161      C1162   1.333       .  A
C1162      C1163   1.391       .  A
C1163      H1169   1.084       .  S
O1164      C1165   1.333       .  A
C1165      C1166   1.393       .  A
C1166      H1170   1.083       .  S
C1171      C1176   1.382       .  A
C1171      C1172   1.401       .  A
C1171      O1177   1.316       .  A
C1172      C1173   1.400       .  A
C1172      H1183   1.081       .  S
C1173      C1182   1.361       .  A
C1173      C1174   1.382       .  A
C1174      C1175   1.400       .  A
C1174      O1180   1.314       .  A
C1175      C1176   1.399       .  A
C1175      H1184   1.082       .  S
C1176      C1179   1.359       .  A
O1177      C1178   1.329       .  A
C1178      C1179   1.390       .  A
C1179      H1185   1.082       .  S
O1180      C1181   1.329       .  A
C1181      C1182   1.388       .  A
C1182      H1186   1.082       .  S
C1187      C1192   1.380       .  A
C1187      C1188   1.410       .  A
C1187      O1193   1.326       .  A
C1188      C1189   1.410       .  A
C1188      H1199   1.082       .  S
C1189      C1198   1.368       .  A
C1189      C1190   1.380       .  A
C1190      C1191   1.404       .  A
C1190      O1196   1.322       .  A
C1191      C1192   1.404       .  A
C1191      H1200   1.083       .  S
C1192      C1195   1.361       .  A
O1193      C1194   1.334       .  A
C1194      C1195   1.392       .  A
C1195      H1201   1.083       .  S
O1196      C1197   1.331       .  A
C1197      C1198   1.395       .  A
C1198      H1202   1.083       .  S
C1203      C1208   1.379       .  A
C1203      C1204   1.410       .  A
C1203      O1209   1.322       .  A
C1204      C1205   1.408       .  A
C1204      H1215   1.083       .  S
C1205      C1214   1.373       .  A
C1205      C1206   1.379       .  A
C1206      C1207   1.405       .  A
C1206      O1212   1.317       .  A
C1207      C1208   1.403       .  A
C1207      H1216   1.084       .  S
C1208      C1211   1.367       .  A
O1209      C1210   1.335       .  A
C1210      C1211   1.391       .  A
C1211      H1217   1.083       .  S
O1212      C1213   1.332       .  A
C1213      C1214   1.394       .  A
C1214      H1218   1.083       .  S
C1219      C1224   1.379       .  A
C1219      C1220   1.404       .  A
C1219      O1225   1.318       .  A
C1220      C1221   1.403       .  A
C1220      H1231   1.083       .  S
C1221      C1230   1.364       .  A
C1221      C1222   1.380       .  A
C1222      C1223   1.406       .  A
C1222      O1228   1.321       .  A
C1223      C1224   1.405       .  A
C1223      H1232   1.083       .  S
C1224      C1227   1.366       .  A
O1225      C1226   1.332       .  A
C1226      C1227   1.392       .  A
C1227      H1233   1.082       .  S
O1228      C1229   1.332       .  A
C1229      C1230   1.391       .  A
C1230      H1234   1.083       .  S
C1235      C1240   1.379       .  A
C1235      C1236   1.404       .  A
C1235      O1241   1.318       .  A
C1236      C1237   1.403       .  A
C1236      H1247   1.081       .  S
C1237      C1246   1.363       .  A
C1237      C1238   1.380       .  A
C1238      C1239   1.409       .  A
C1238      O1244   1.323       .  A
C1239      C1240   1.408       .  A
C1239      H1248   1.081       .  S
C1240      C1243   1.369       .  A
O1241      C1242   1.332       .  A
C1242      C1243   1.393       .  A
C1243      H1249   1.082       .  S
O1244      C1245   1.334       .  A
C1245      C1246   1.391       .  A
C1246      H1250   1.082       .  S
C1251      C1256   1.381       .  A
C1251      C1252   1.401       .  A
C1251      O1257   1.315       .  A
C1252      C1253   1.399       .  A
C1252      H1263   1.083       .  S
C1253      C1262   1.360       .  A
C1253      C1254   1.380       .  A
C1254      C1255   1.406       .  A
C1254      O1260   1.319       .  A
C1255      C1256   1.405       .  A
C1255      H1264   1.083       .  S
C1256      C1259   1.367       .  A
O1257      C1258   1.329       .  A
C1258      C1259   1.392       .  A
C1259      H1265   1.083       .  S
O1260      C1261   1.332       .  A
C1261      C1262   1.386       .  A
C1262      H1266   1.082       .  S
C1267      C1272   1.378       .  A
C1267      C1268   1.409       .  A
C1267      O1273   1.320       .  A
C1268      C1269   1.407       .  A
C1268      H1279   1.084       .  S
C1269      C1278   1.370       .  A
C1269      C1270   1.380       .  A
C1270      C1271   1.408       .  A
C1270      O1276   1.322       .  A
C1271      C1272   1.406       .  A
C1271      H1280   1.083       .  S
C1272      C1275   1.369       .  A
O1273      C1274   1.335       .  A
C1274      C1275   1.393       .  A
C1275      H1281   1.083       .  S
O1276      C1277   1.333       .  A
C1277      C1278   1.395       .  A
C1278      H1282   1.083       .  S
C1283      C1288   1.380       .  A
C1283      C1284   1.409       .  A
C1283      O1289   1.320       .  A
C1284      C1285   1.406       .  A
C1284      H1295   1.083       .  S
C1285      C1294   1.370       .  A
C1285      C1286   1.380       .  A
C1286      C1287   1.402       .  A
C1286      O1292   1.316       .  A
C1287      C1288   1.400       .  A
C1287      H1296   1.083       .  S
C1288      C1291   1.364       .  A
O1289      C1290   1.334       .  A
C1290      C1291   1.389       .  A
C1291      H1297   1.083       .  S
O1292      C1293   1.330       .  A
C1293      C1294   1.393       .  A
C1294      H1298   1.083       .  S
C1299      C1304   1.380       .  A
C1299      C1300   1.405       .  A
C1299      O1305   1.321       .  A
C1300      C1301   1.404       .  A
C1300      H1311   1.083       .  S
C1301      C1310   1.365       .  A
C1301      C1302   1.379       .  A
C1302      C1303   1.410       .  A
C1302      O1308   1.323       .  A
C1303      C1304   1.409       .  A
C1303      H1312   1.082       .  S
C1304      C1307   1.370       .  A
O1305      C1306   1.332       .  A
C1306      C1307   1.395       .  A
C1307      H1313   1.083       .  S
O1308      C1309   1.335       .  A
C1309      C1310   1.391       .  A
C1310      H1314   1.082       .  S
C1315      C1320   1.379       .  A
C1315      C1316   1.412       .  A
C1315      O1321   1.326       .  A
C1316      C1317   1.411       .  A
C1316      H1327   1.083       .  S
C1317      C1326   1.372       .  A
C1317      C1318   1.379       .  A
C1318      C1319   1.401       .  A
C1318      O1324   1.316       .  A
C1319      C1320   1.400       .  A
C1319      H1328   1.084       .  S
C1320      C1323   1.361       .  A
O1321      C1322   1.336       .  A
C1322      C1323   1.389       .  A
C1323      H1329   1.083       .  S
O1324      C1325   1.331       .  A
C1325      C1326   1.397       .  A
C1326      H1330   1.083   1_565  S
C1331      C1336   1.380       .  A
C1331      C1332   1.410       .  A
C1331      O1337   1.319       .  A
C1332      C1333   1.406       .  A
C1332      H1343   1.083       .  S
C1333      C1342   1.373       .  A
C1333      C1334   1.380   1_565  A
C1334      C1335   1.395       .  A
C1334      O1340   1.306       .  A
C1335      C1336   1.391   1_545  A
C1335      H1344   1.084       .  S
C1336      C1339   1.355       .  A
O1337      C1338   1.333       .  A
C1338      C1339   1.385       .  A
C1339      H1345   1.083       .  S
O1340      C1341   1.327       .  A
C1341      C1342   1.394   1_545  A
C1342      H1346   1.083       .  S
C1347      C1352   1.380       .  A
C1347      C1348   1.405       .  A
C1347      O1353   1.319       .  A
C1348      C1349   1.403       .  A
C1348      H1359   1.081       .  S
C1349      C1358   1.364       .  A
C1349      C1350   1.380       .  A
C1350      C1351   1.406       .  A
C1350      O1356   1.320       .  A
C1351      C1352   1.405       .  A
C1351      H1360   1.081       .  S
C1352      C1355   1.365       .  A
O1353      C1354   1.332       .  A
C1354      C1355   1.392       .  A
C1355      H1361   1.082       .  S
O1356      C1357   1.332       .  A
C1357      C1358   1.391       .  A
C1358      H1362   1.082       .  S
C1363      C1368   1.381       .  A
C1363      C1364   1.399       .  A
C1363      O1369   1.318       .  A
C1364      C1365   1.400       .  A
C1364      H1375   1.084       .  S
C1365      C1374   1.354       .  A
C1365      C1366   1.381       .  A
C1366      C1367   1.403       .  A
C1366      O1372   1.322       .  A
C1367      C1368   1.404       .  A
C1367      H1376   1.084       .  S
C1368      C1371   1.360       .  A
O1369      C1370   1.328       .  A
C1370      C1371   1.393       .  A
C1371      H1377   1.083       .  S
O1372      C1373   1.330       .  A
C1373      C1374   1.389       .  A
C1374      H1378   1.083       .  S
C1379      C1384   1.381       .  A
C1379      C1380   1.400       .  A
C1379      O1385   1.314       .  A
C1380      C1381   1.398       .  A
C1380      H1391   1.084       .  S
C1381      C1390   1.361       .  A
C1381      C1382   1.381       .  A
C1382      C1383   1.405       .  A
C1382      O1388   1.317       .  A
C1383      C1384   1.403       .  A
C1383      H1392   1.083       .  S
C1384      C1387   1.366       .  A
O1385      C1386   1.329       .  A
C1386      C1387   1.392       .  A
C1387      H1393   1.083       .  S
O1388      C1389   1.332       .  A
C1389      C1390   1.387       .  A
C1390      H1394   1.083       .  S
C1395      C1400   1.382       .  A
C1395      C1396   1.398       .  A
C1395      O1401   1.315       .  A
C1396      C1397   1.398       .  A
C1396      H1407   1.082       .  S
C1397      C1406   1.355       .  A
C1397      C1398   1.381       .  A
C1398      C1399   1.402       .  A
C1398      O1404   1.319       .  A
C1399      C1400   1.402       .  A
C1399      H1408   1.082       .  S
C1400      C1403   1.360       .  A
O1401      C1402   1.328       .  A
C1402      C1403   1.391       .  A
C1403      H1409   1.082       .  S
O1404      C1405   1.330       .  A
C1405      C1406   1.390       .  A
C1406      H1410   1.083       .  S
C1411      C1416   1.381       .  A
C1411      C1412   1.395       .  A
C1411      O1417   1.309       .  A
C1412      C1413   1.393       .  A
C1412      H1423   1.084   1_565  S
C1413      C1422   1.353       .  A
C1413      C1414   1.380       .  A
C1414      C1415   1.408       .  A
C1414      O1420   1.320       .  A
C1415      C1416   1.406       .  A
C1415      H1424   1.083       .  S
C1416      C1419   1.368       .  A
O1417      C1418   1.326       .  A
C1418      C1419   1.393       .  A
C1419      H1425   1.083       .  S
O1420      C1421   1.333       .  A
C1421      C1422   1.385       .  A
C1422      H1426   1.084       .  S
C1427      C1432   1.381       .  A
C1427      C1428   1.401       .  A
C1427      O1433   1.320       .  A
C1428      C1429   1.401       .  A
C1428      H1439   1.083       .  S
C1429      C1438   1.356       .  A
C1429      C1430   1.381       .  A
C1430      C1431   1.405       .  A
C1430      O1436   1.324       .  A
C1431      C1432   1.406       .  A
C1431      H1440   1.083       .  S
C1432      C1435   1.363       .  A
O1433      C1434   1.330       .  A
C1434      C1435   1.393       .  A
C1435      H1441   1.083       .  S
O1436      C1437   1.331       .  A
C1437      C1438   1.391       .  A
C1438      H1442   1.083       .  S
C1443      C1448   1.381       .  A
C1443      C1444   1.404       .  A
C1443      O1449   1.319       .  A
C1444      C1445   1.404       .  A
C1444      H1455   1.083       .  S
C1445      C1454   1.365       .  A
C1445      C1446   1.381       .  A
C1446      C1447   1.398       .  A
C1446      O1452   1.312       .  A
C1447      C1448   1.396       .  A
C1447      H1456   1.083       .  S
C1448      C1451   1.355       .  A
O1449      C1450   1.331       .  A
C1450      C1451   1.388       .  A
C1451      H1457   1.083       .  S
O1452      C1453   1.328       .  A
C1453      C1454   1.392       .  A
C1454      H1458   1.082       .  S
C1459      C1464   1.379       .  A
C1459      C1460   1.399       .  A
C1459      O1465   1.312       .  A
C1460      C1461   1.397       .  A
C1460      H1471   1.082       .  S
C1461      C1470   1.360       .  A
C1461      C1462   1.379       .  A
C1462      C1463   1.412       .  A
C1462      O1468   1.324       .  A
C1463      C1464   1.410       .  A
C1463      H1472   1.081       .  S
C1464      C1467   1.373       .  A
O1465      C1466   1.328       .  A
C1466      C1467   1.396       .  A
C1467      H1473   1.082       .  S
O1468      C1469   1.336       .  A
C1469      C1470   1.388       .  A
C1470      H1474   1.082       .  S
C1475      C1480   1.379       .  A
C1475      C1476   1.411       .  A
C1475      O1481   1.323       .  A
C1476      C1477   1.409       .  A
C1476      H1487   1.082       .  S
C1477      C1486   1.372       .  A
C1477      C1478   1.380       .  A
C1478      C1479   1.403       .  A
C1478      O1484   1.316       .  A
C1479      C1480   1.401       .  A
C1479      H1488   1.082       .  S
C1480      C1483   1.364       .  A
O1481      C1482   1.335       .  A
C1482      C1483   1.390       .  A
C1483      H1489   1.082       .  S
O1484      C1485   1.331       .  A
C1485      C1486   1.393       .  A
C1486      H1490   1.083       .  S
C1491      C1496   1.380       .  A
C1491      C1492   1.411       .  A
C1491      O1497   1.324       .  A
C1492      C1493   1.409       .  A
C1492      H1503   1.082       .  S
C1493      C1502   1.373       .  A
C1493      C1494   1.378       .  A
C1494      C1495   1.402       .  A
C1494      O1500   1.314       .  A
C1495      C1496   1.400       .  A
C1495      H1504   1.083       .  S
C1496      C1499   1.362       .  A
O1497      C1498   1.335       .  A
C1498      C1499   1.390       .  A
C1499      H1505   1.083       .  S
O1500      C1501   1.331       .  A
C1501      C1502   1.395       .  A
C1502      H1506   1.082       .  S
C1507      C1512   1.380       .  A
C1507      C1508   1.405       .  A
C1507      O1513   1.323       .  A
C1508      C1509   1.405       .  A
C1508      H1519   1.083       .  S
C1509      C1518   1.362       .  A
C1509      C1510   1.380       .  A
C1510      C1511   1.408       .  A
C1510      O1516   1.325       .  A
C1511      C1512   1.409       .  A
C1511      H1520   1.083       .  S
C1512      C1515   1.366       .  A
O1513      C1514   1.332       .  A
C1514      C1515   1.395       .  A
C1515      H1521   1.083       .  S
O1516      C1517   1.333       .  A
C1517      C1518   1.393       .  A
C1518      H1522   1.083       .  S
C1523      C1528   1.380       .  A
C1523      C1524   1.407       .  A
C1523      O1529   1.325       .  A
C1524      C1525   1.408       .  A
C1524      H1535   1.084   1_545  S
C1525      C1534   1.365       .  A
C1525      C1526   1.381       .  A
C1526      C1527   1.396       .  A
C1526      O1532   1.315       .  A
C1527      C1528   1.396       .  A
C1527      H1536   1.084       .  S
C1528      C1531   1.351       .  A
O1529      C1530   1.333       .  A
C1530      C1531   1.389       .  A
C1531      H1537   1.083       .  S
O1532      C1533   1.327       .  A
C1533      C1534   1.393       .  A
C1534      H1538   1.083   1_545  S
C1539      C1544   1.381       .  A
C1539      C1540   1.404       .  A
C1539      O1545   1.317       .  A
C1540      C1541   1.402       .  A
C1540      H1551   1.082       .  S
C1541      C1550   1.362       .  A
C1541      C1542   1.381   1_565  A
C1542      C1543   1.400       .  A
C1542      O1548   1.315       .  A
C1543      C1544   1.399   1_545  A
C1543      H1552   1.082       .  S
C1544      C1547   1.360   1_565  A
O1545      C1546   1.331       .  A
C1546      C1547   1.388   1_565  A
C1547      H1553   1.082       .  S
O1548      C1549   1.329   1_545  A
C1549      C1550   1.391       .  A
C1550      H1554   1.082       .  S
C1555      C1560   1.380       .  A
C1555      C1556   1.406       .  A
C1555      O1561   1.320       .  A
C1556      C1557   1.404       .  A
C1556      H1567   1.084       .  S
C1557      C1566   1.365       .  A
C1557      C1558   1.380       .  A
C1558      C1559   1.407       .  A
C1558      O1564   1.321   1_554  A
C1559      C1560   1.406       .  A
C1559      H1568   1.083   1_554  S
C1560      C1563   1.367       .  A
O1561      C1562   1.332       .  A
C1562      C1563   1.393       .  A
C1563      H1569   1.083       .  S
O1564      C1565   1.333       .  A
C1565      C1566   1.390   1_556  A
C1566      H1570   1.083       .  S
C1571      C1576   1.381       .  A
C1571      C1572   1.402       .  A
C1571      O1577   1.321       .  A
C1572      C1573   1.402       .  A
C1572      H1583   1.083       .  S
C1573      C1582   1.357       .  A
C1573      C1574   1.380       .  A
C1574      C1575   1.406       .  A
C1574      O1580   1.324       .  A
C1575      C1576   1.407       .  A
C1575      H1584   1.083       .  S
C1576      C1579   1.364       .  A
O1577      C1578   1.330       .  A
C1578      C1579   1.393       .  A
C1579      H1585   1.083       .  S
O1580      C1581   1.332       .  A
C1581      C1582   1.392       .  A
C1582      H1586   1.082       .  S
C1587      C1592   1.381       .  A
C1587      C1588   1.403   1_455  A
C1587      O1593   1.316   1_455  A
C1588      C1589   1.401   1_655  A
C1588      H1599   1.083       .  S
C1589      C1598   1.363       .  A
C1589      C1590   1.381       .  A
C1590      C1591   1.403       .  A
C1590      O1596   1.315       .  A
C1591      C1592   1.401       .  A
C1591      H1600   1.083       .  S
C1592      C1595   1.364       .  A
O1593      C1594   1.330   1_655  A
C1594      C1595   1.390       .  A
C1595      H1601   1.083       .  S
O1596      C1597   1.330       .  A
C1597      C1598   1.389       .  A
C1598      H1602   1.083   1_455  S
C1603      C1608   1.380       .  A
C1603      C1604   1.406       .  A
C1603      O1609   1.320       .  A
C1604      C1605   1.405       .  A
C1604      H1615   1.084       .  S
C1605      C1614   1.367       .  A
C1605      C1606   1.380       .  A
C1606      C1607   1.404   1_455  A
C1606      O1612   1.318   1_455  A
C1607      C1608   1.403   1_655  A
C1607      H1616   1.084       .  S
C1608      C1611   1.364       .  A
O1609      C1610   1.332       .  A
C1610      C1611   1.391       .  A
C1611      H1617   1.083   1_455  S
O1612      C1613   1.332   1_655  A
C1613      C1614   1.392       .  A
C1614      H1618   1.083       .  S
C1619      C1624   1.381       .  A
C1619      C1620   1.405       .  A
C1619      O1625   1.323       .  A
C1620      C1621   1.405       .  A
C1620      H1631   1.083       .  S
C1621      C1630   1.363   1_554  A
C1621      C1622   1.381       .  A
C1622      C1623   1.403       .  A
C1622      O1628   1.320       .  A
C1623      C1624   1.403       .  A
C1623      H1632   1.083       .  S
C1624      C1627   1.360       .  A
O1625      C1626   1.332       .  A
C1626      C1627   1.391       .  A
C1627      H1633   1.082       .  S
O1628      C1629   1.330   1_554  A
C1629      C1630   1.392       .  A
C1630      H1634   1.083       .  S
C1635      C1640   1.381       .  A
C1635      C1636   1.403       .  A
C1635      O1641   1.321       .  A
C1636      C1637   1.404       .  A
C1636      H1647   1.082       .  S
C1637      C1646   1.359       .  A
C1637      C1638   1.381       .  A
C1638      C1639   1.403       .  A
C1638      O1644   1.321       .  A
C1639      C1640   1.403       .  A
C1639      H1648   1.083       .  S
C1640      C1643   1.359       .  A
O1641      C1642   1.331       .  A
C1642      C1643   1.390       .  A
C1643      H1649   1.083       .  S
O1644      C1645   1.330       .  A
C1645      C1646   1.392       .  A
C1646      H1650   1.083       .  S
C1651      C1656   1.380       .  A
C1651      C1652   1.397       .  A
C1651      O1657   1.311       .  A
C1652      C1653   1.395       .  A
C1652      H1663   1.082       .  S
C1653      C1662   1.355       .  A
C1653      C1654   1.380       .  A
C1654      C1655   1.410       .  A
C1654      O1660   1.322       .  A
C1655      C1656   1.408       .  A
C1655      H1664   1.081       .  S
C1656      C1659   1.371       .  A
O1657      C1658   1.328       .  A
C1658      C1659   1.395       .  A
C1659      H1665   1.082       .  S
O1660      C1661   1.333       .  A
C1661      C1662   1.387       .  A
C1662      H1666   1.083       .  S
C1667      C1672   1.380       .  A
C1667      C1668   1.402       .  A
C1667      O1673   1.314       .  A
C1668      C1669   1.399       .  A
C1668      H1679   1.082       .  S
C1669      C1678   1.361       .  A
C1669      C1670   1.381       .  A
C1670      C1671   1.404       .  A
C1670      O1676   1.317       .  A
C1671      C1672   1.402       .  A
C1671      H1680   1.081       .  S
C1672      C1675   1.365       .  A
O1673      C1674   1.330       .  A
C1674      C1675   1.391       .  A
C1675      H1681   1.082       .  S
O1676      C1677   1.330       .  A
C1677      C1678   1.389       .  A
C1678      H1682   1.082       .  S
C1683      C1688   1.381       .  A
C1683      C1684   1.401       .  A
C1683      O1689   1.317   1_554  A
C1684      C1685   1.401       .  A
C1684      H1695   1.084       .  S
C1685      C1694   1.360       .  A
C1685      C1686   1.381       .  A
C1686      C1687   1.404       .  A
C1686      O1692   1.320       .  A
C1687      C1688   1.404       .  A
C1687      H1696   1.084       .  S
C1688      C1691   1.363       .  A
O1689      C1690   1.329       .  A
C1690      C1691   1.389   1_556  A
C1691      H1697   1.083       .  S
O1692      C1693   1.331       .  A
C1693      C1694   1.390       .  A
C1694      H1698   1.083       .  S
