geometry optimzed in LAMMPS
_audit_creation_date              2020-11-30 
_audit_creation_method            'lammps2cif' 
_symmetry_space_group_name_H-M    'P1' 
_symmetry_Int_Tables_number       1 
_symmetry_cell_setting            triclinic 
loop_ 
_symmetry_equiv_pos_as_xyz 
  x,y,z 
_cell_length_a                    33.33534236 
_cell_length_b                    33.46089114995363 
_cell_length_c                    34.782529080086164 
_cell_angle_alpha                 90.04663330149391 
_cell_angle_beta                  89.49157969245357 
_cell_angle_gamma                 89.87967175647839 
loop_ 
_atom_site_label 
_atom_site_type_symbol 
_atom_site_fract_x 
_atom_site_fract_y 
_atom_site_fract_z 
_atom_site_charge 
O1          O  0.35346064  0.95643115  0.12367222    -0.72800
O2          O  0.33915870  0.03240257  0.20678696    -0.72800
O3          O  0.34714176  0.03715130  0.12986583    -0.72900
O4          O  0.34278712  0.95125890  0.20062262    -0.73000
O5          O  0.40898740  0.95425129  0.20907306    -0.72900
O6          O  0.41370663  0.04077005  0.13524419    -0.72900
O7          O  0.40563286  0.03518354  0.21264110    -0.72800
O8          O  0.41969393  0.96021421  0.13155279    -0.72900
Ni9        Ni  0.34328309  0.99413343  0.16501115     1.25400
Ni10       Ni  0.41438676  0.99765912  0.17241560     1.25400
C11         C  0.38938999  0.94610270  0.11405110     0.89400
C12         C  0.37058770  0.04670815  0.22292331     0.89300
C13         C  0.38054145  0.05322097  0.12085972     0.89300
C14         C  0.37459568  0.93855559  0.21663720     0.89500
C15         C  0.37334212  0.18197536  0.00380692     0.88100
C16         C  0.37557831  0.15767096  0.04107028    -0.52100
C17         C  0.40315002  0.12721926  0.03957604     0.11000
C18         C  0.43120630  0.12268965  0.33453636     0.22000
C19         C  0.42601490  0.19518247  0.33132651    -0.52900
C20         C  0.44361626  0.16632678  0.99507472     0.11100
C21         C  0.37380437  0.15340444  0.30308326    -0.52400
C22         C  0.39970648  0.12161395  0.30240371     0.11700
H23         H  0.35697350  0.16406572  0.06611343     0.16200
H24         H  0.45235840  0.09696135  0.33397185     0.02000
H25         H  0.43596289  0.22601189  0.32933674     0.16500
H26         H  0.35020309  0.15762731  0.28215546     0.16300
C27         C  0.36034350  0.80584080  0.33150561     0.88100
C28         C  0.36245539  0.83362329  0.29645138    -0.52100
C29         C  0.38724668  0.86590196  0.30155506     0.11000
C30         C  0.41407183  0.86609898  0.00805262     0.22000
C31         C  0.41264570  0.79328640  0.00644148    -0.52900
C32         C  0.42846082  0.82641095  0.34428294     0.11100
C33         C  0.35564624  0.83061337  0.03288244    -0.52400
C34         C  0.37929511  0.86332008  0.03775791     0.11700
H35         H  0.34648904  0.82757626  0.27003396     0.16200
H36         H  0.43374273  0.89259095  0.01121781     0.02000
H37         H  0.42421181  0.76291130  0.00628435     0.16500
H38         H  0.32970174  0.82446580  0.05106217     0.16300
O39         O  0.73848413  0.04529337  0.13355813    -0.72800
O40         O  0.73430092  0.96237133  0.20841471    -0.72800
O41         O  0.74255437  0.96420910  0.13117725    -0.72900
O42         O  0.72883191  0.04314735  0.21081427    -0.73000
O43         O  0.66245446  0.03940975  0.20391444    -0.72900
O44         O  0.67607209  0.96098726  0.12526643    -0.72900
O45         O  0.66774139  0.95880587  0.20309304    -0.72800
O46         O  0.67216265  0.04191075  0.12617400    -0.72900
Ni47       Ni  0.73838757  0.00392047  0.17120241     1.25400
Ni48       Ni  0.66722117  0.00018141  0.16433216     1.25400
C49         C  0.70635913  0.05722316  0.11739277     0.89400
C50         C  0.70070476  0.94702799  0.21827978     0.89300
C51         C  0.71129588  0.94947853  0.11529812     0.89300
C52         C  0.69316593  0.05393670  0.22054715     0.89500
C53         C  0.72193353  0.19104822  0.33886455     0.88100
C54         C  0.73236274  0.16662287  0.30291280    -0.52100
C55         C  0.70872240  0.13386547  0.29810504     0.11000
C56         C  0.67678183  0.12859127  0.33013328     0.22000
C57         C  0.66965548  0.20073686  0.99480412    -0.52900
C58         C  0.65344436  0.16820742  0.33102767     0.11100
C59         C  0.71389973  0.15942387  0.03365759    -0.52400
C60         C  0.68643948  0.12896294  0.03285126     0.11700
H61         H  0.75660284  0.17429890  0.28318395     0.16200
H62         H  0.63846738  0.10404556  0.99555586     0.02000
H63         H  0.66113695  0.23206282  0.99347025     0.16500
H64         H  0.73398552  0.16474260  0.05749540     0.16300
C65         C  0.69904297  0.81679095  0.33515735     0.88100
C66         C  0.71302317  0.84389301  0.03456885    -0.52100
C67         C  0.68696959  0.87556965  0.03382906     0.11000
C68         C  0.64645052  0.87434228  0.33593241     0.22000
C69         C  0.65557432  0.80203039  0.33776507    -0.52900
C70         C  0.63770061  0.83408989  0.00125489     0.09900
C71         C  0.70069754  0.84327738  0.29927860    -0.52400
C72         C  0.67314681  0.87373159  0.29962788     0.11700
H73         H  0.73475540  0.83925790  0.05720387     0.16200
H74         H  0.62386338  0.89883076  0.33626335     0.02000
H75         H  0.64728421  0.77069519  0.33943569     0.16500
H76         H  0.72167743  0.83804911  0.27574988     0.16300
O77         O  0.08567560  0.29643670  0.13268536    -0.72800
O78         O  0.00203244  0.30014752  0.20783166    -0.72800
O79         O  0.00429365  0.29178939  0.13047183    -0.72900
O80         O  0.08326096  0.30670911  0.20992125    -0.73000
O81         O  0.07839037  0.37266865  0.20171293    -0.72900
O82         O  0.00041187  0.35798093  0.12407792    -0.72900
O83         O  0.99768680  0.36638261  0.20160516    -0.72800
O84         O  0.08128231  0.36240888  0.12430869    -0.72900
Ni85       Ni  0.04399813  0.29637182  0.17048467     1.25400
Ni86       Ni  0.03930146  0.36717544  0.16264492     1.25400
C87         C  0.09718304  0.32844347  0.11598804     0.89400
C88         C  0.98620324  0.33355319  0.21731318     0.89300
C89         C  0.98935542  0.32289577  0.11431987     0.89300
C90         C  0.09356285  0.34255762  0.21877148     0.89500
C91         C  0.23603193  0.32316646  0.33300299     0.88100
C92         C  0.20930745  0.30922661  0.30007925    -0.52100
C93         C  0.17654025  0.33278271  0.29437620     0.11000
C94         C  0.16900908  0.37098692  0.99314149     0.22000
C95         C  0.24207789  0.36974099  0.99570971    -0.52900
C96         C  0.21364006  0.39060586  0.31877873     0.11100
C97         C  0.20288451  0.32442124  0.03580779    -0.52400
C98         C  0.16985030  0.34842235  0.03161606     0.11700
H99         H  0.21561312  0.28278340  0.28287518     0.16200
H100        H  0.14231331  0.39059778  0.99026815     0.02000
H101        H  0.27250546  0.38128312  0.99608348     0.16500
H102        H  0.20877089  0.30690133  0.06140327     0.16300
C103        C  0.85783496  0.33934379  0.33842352     0.88100
C104        C  0.88410705  0.32355849  0.03367189    -0.52100
C105        C  0.91502040  0.35033545  0.03425402     0.11000
C106        C  0.91447223  0.39230901  0.33322635     0.22000
C107        C  0.84222840  0.38243926  0.33787156    -0.52900
C108        C  0.87100153  0.40147530  0.00733484     0.11100
C109        C  0.88371521  0.33510769  0.30194471    -0.52400
C110        C  0.91366929  0.36300631  0.29922119     0.11700
H111        H  0.88071106  0.29952054  0.05437882     0.16200
H112        H  0.93859085  0.41511132  0.33104764     0.02000
H113        H  0.81063161  0.39037560  0.33945256     0.16500
H114        H  0.87838731  0.31239288  0.28029310     0.16300
O115        O  0.99825227  0.71244350  0.12547300    -0.72800
O116        O  0.07815306  0.70855210  0.20379143    -0.72800
O117        O  0.07959777  0.70821254  0.12616871    -0.72900
O118        O  0.99696596  0.71315959  0.20305882    -0.73000
O119        O  0.99365555  0.64657554  0.20386212    -0.72900
O120        O  0.07630944  0.64162610  0.12598289    -0.72900
O121        O  0.07476097  0.64195391  0.20419949    -0.72800
O122        O  0.99509051  0.64584032  0.12569848    -0.72900
Ni123      Ni  0.03837699  0.71292254  0.16460177     1.25400
Ni124      Ni  0.03482135  0.64158584  0.16494276     1.25400
C125        C  0.98351355  0.67975769  0.11274422     0.89400
C126        C  0.08953995  0.67466608  0.21688175     0.89300
C127        C  0.09158502  0.67431922  0.11337883     0.89300
C128        C  0.98175182  0.68081227  0.21618380     0.89500
C129        C  0.22213430  0.65983595  0.32950952     0.88100
C130        C  0.19665565  0.66775208  0.03151978    -0.52100
C131        C  0.16421052  0.64261754  0.03173592     0.11000
C132        C  0.16095494  0.61178726  0.33052050     0.22000
C133        C  0.23398274  0.61555689  0.32855542    -0.52900
C134        C  0.20298757  0.59393860  0.99443688     0.11100
C135        C  0.19401725  0.66553584  0.29542519    -0.52400
C136        C  0.16165342  0.64047321  0.29597210     0.11700
H137        H  0.20299289  0.68870030  0.05451597     0.16200
H138        H  0.13481108  0.59122641  0.33084315     0.02000
H139        H  0.26483036  0.60511271  0.32685223     0.16500
H140        H  0.19959586  0.68725837  0.27283936     0.16300
C141        C  0.85039674  0.67112338  0.99873817     0.88100
C142        C  0.87653039  0.68315267  0.29843800    -0.52100
C143        C  0.90731566  0.65591681  0.29809341     0.11000
C144        C  0.91074017  0.62179577  0.99821132     0.22000
C145        C  0.83787369  0.62700175  0.00016205    -0.52900
C146        C  0.86491702  0.60863132  0.33248920     0.11100
C147        C  0.87872596  0.67672315  0.03279779    -0.52400
C148        C  0.91054427  0.65080352  0.03249510     0.11700
H149        H  0.87196141  0.70506305  0.27589143     0.16200
H150        H  0.93650270  0.60064331  0.99805498     0.02000
H151        H  0.80688435  0.61709595  0.00166662     0.16500
H152        H  0.87357122  0.69871719  0.05528100     0.16300
C153        C  0.93838809  0.65263929  0.26741466    -0.14800
C154        C  0.94986353  0.68387246  0.24576394    -0.30000
H155        H  0.95366013  0.62412210  0.26408285     0.14200
H156        H  0.93673047  0.71314128  0.25086775     0.14800
C157        C  0.95240361  0.68166259  0.08298300    -0.14800
C158        C  0.94180376  0.64940661  0.06243574    -0.30000
H159        H  0.93877681  0.71051262  0.07718231     0.14200
H160        H  0.95762584  0.62131884  0.06640628     0.14800
C161        C  0.12060047  0.67393971  0.24665679    -0.14800
C162        C  0.12990069  0.64074365  0.26645749    -0.30000
H163        H  0.13560425  0.70192927  0.25293925     0.14200
H164        H  0.11289821  0.61348284  0.26212120     0.14800
C165        C  0.12376254  0.67395316  0.08388901    -0.14800
C166        C  0.13302542  0.64161338  0.06258106    -0.30000
H167        H  0.13907419  0.70201717  0.07843711     0.14200
H168        H  0.11568308  0.61439247  0.06604806     0.14800
C169        C  0.86541109  0.44426176  0.00861139    -0.16900
C170        C  0.86346349  0.48027699  0.00764767     0.07200
C171        C  0.85804991  0.53010730  0.33250142     0.09000
C172        C  0.85920815  0.56605133  0.33230712    -0.17700
C173        C  0.21547115  0.43371529  0.31660261    -0.16900
C174        C  0.21393463  0.46977333  0.31801098     0.07200
C175        C  0.21007802  0.51177402  0.32179632     0.09000
C176        C  0.20690867  0.55096633  0.99271645    -0.17700
C177        C  0.95844359  0.31884356  0.08434579    -0.14800
C178        C  0.94740627  0.35070661  0.06313266    -0.30000
H179        H  0.94473568  0.28983933  0.07986550     0.14200
H180        H  0.96317979  0.37884545  0.06653477     0.14800
C181        C  0.94334694  0.36528557  0.26723062    -0.14800
C182        C  0.95430015  0.33293254  0.24687103    -0.30000
H183        H  0.95855525  0.39352716  0.26233263     0.14200
H184        H  0.94145290  0.30401618  0.25385738     0.14800
C185        C  0.14661127  0.32287699  0.26452798    -0.14800
C186        C  0.12289567  0.35083478  0.24918701    -0.30000
H187        H  0.14534658  0.29238187  0.25383397     0.14200
H188        H  0.12611237  0.38179576  0.25791816     0.14800
C189        C  0.12957581  0.32493502  0.08713177    -0.14800
C190        C  0.13786839  0.35345634  0.06119380    -0.30000
H191        H  0.14582586  0.29679095  0.08618296     0.14200
H192        H  0.11957464  0.38033516  0.06028507     0.14800
C193        C  0.72936656  0.78468833  0.33472902    -0.16900
C194        C  0.76031888  0.75424263  0.00080223     0.07200
C195        C  0.78997993  0.72396477  0.99997312     0.09000
C196        C  0.81651054  0.69934957  0.99924003    -0.17700
C197        C  0.74790258  0.22607142  0.34318652    -0.16900
C198        C  0.77122008  0.25351251  0.34431838     0.07200
C199        C  0.80017934  0.28418420  0.34341573     0.09000
C200        C  0.82585586  0.30942004  0.34144117    -0.17700
C201        C  0.68463893  0.90732076  0.06347688    -0.14800
C202        C  0.71580883  0.91833146  0.08542407    -0.30000
H203        H  0.65622378  0.92305961  0.06628924     0.14200
H204        H  0.74509667  0.90467482  0.08120229     0.14800
C205        C  0.66961256  0.90416124  0.26870382    -0.14800
C206        C  0.70152810  0.91508916  0.24739495    -0.30000
H207        H  0.64120637  0.91966935  0.26537058     0.14200
H208        H  0.73064259  0.90189596  0.25316467     0.14800
C209        C  0.68637527  0.08288937  0.25183753    -0.14800
C210        C  0.71578945  0.10552674  0.26607826    -0.30000
H211        H  0.65593984  0.08622883  0.26274624     0.14200
H212        H  0.74559975  0.10420247  0.25323189     0.14800
C213        C  0.71012429  0.08916378  0.08836449    -0.14800
C214        C  0.68087311  0.09867333  0.06369901    -0.30000
H215        H  0.73909994  0.10372097  0.08598698     0.14200
H216        H  0.65288130  0.08213400  0.06445784     0.14800
C217        C  0.25618254  0.68755527  0.32845142    -0.16900
C218        C  0.28218636  0.71250306  0.32699493     0.07200
C219        C  0.31069648  0.74361014  0.32592981     0.09000
C220        C  0.33373323  0.77131335  0.32684768    -0.17700
C221        C  0.47135593  0.82289944  0.34715867    -0.16900
C222        C  0.50746787  0.82186370  0.34684940     0.07200
C223        C  0.55852979  0.82649102  0.00649701     0.09000
C224        C  0.59458928  0.82946787  0.00374689    -0.17700
C225        C  0.27116479  0.29689887  0.33797851    -0.16900
C226        C  0.29853905  0.27316218  0.33913969     0.07200
C227        C  0.32055120  0.24218324  0.00658352     0.09000
C228        C  0.34411012  0.21480775  0.00552384    -0.17700
C229        C  0.61011591  0.17019885  0.32876038    -0.16900
C230        C  0.57384408  0.17054742  0.32775463     0.07200
C231        C  0.52182839  0.17691033  0.98960856     0.09000
C232        C  0.48597501  0.17314860  0.99101335    -0.17700
C233        C  0.39552997  0.89715796  0.27215430    -0.14800
C234        C  0.36979324  0.90511245  0.24379962    -0.30000
H235        H  0.42189988  0.91578855  0.27562599     0.14200
H236        H  0.34184702  0.88863023  0.24218734     0.14800
C237        C  0.36972107  0.89335006  0.06797116    -0.14800
C238        C  0.39753192  0.91779101  0.08236051    -0.30000
H239        H  0.33956001  0.89380578  0.08008305     0.14200
H240        H  0.42835233  0.91545118  0.07230969     0.14800
C241        C  0.36705313  0.07774355  0.25320006    -0.14800
C242        C  0.39954090  0.08919217  0.27331392    -0.30000
H243        H  0.33802753  0.09149960  0.25858765     0.14200
H244        H  0.42777955  0.07348324  0.26907328     0.14800
C245        C  0.37883644  0.08670402  0.09365162    -0.14800
C246        C  0.40931714  0.09756718  0.07067055    -0.30000
H247        H  0.34954192  0.10032320  0.08979686     0.14200
H248        H  0.43763477  0.08151535  0.07182508     0.14800
O249        O  0.34998390  0.95572595  0.45775812    -0.72800
O250        O  0.33556411  0.03326847  0.53869447    -0.72800
O251        O  0.34390993  0.03653238  0.46150450    -0.72900
O252        O  0.34022026  0.95226062  0.53494904    -0.73000
O253        O  0.40645475  0.95630660  0.54280778    -0.72900
O254        O  0.41045842  0.04016335  0.46699702    -0.72900
O255        O  0.40201156  0.03706492  0.54461845    -0.72800
O256        O  0.41627633  0.95960695  0.46521262    -0.72900
Ni257      Ni  0.34005694  0.99427702  0.49800040     1.25400
Ni258      Ni  0.41117405  0.99839811  0.50517019     1.25400
C259        C  0.38576672  0.94509304  0.44822358     0.89400
C260        C  0.36668971  0.04806156  0.55478077     0.89300
C261        C  0.37748919  0.05214541  0.45201162     0.89300
C262        C  0.37239151  0.94049500  0.55112567     0.89500
C263        C  0.38180441  0.18292409  0.33600283     0.88100
C264        C  0.38036954  0.15740099  0.37257105    -0.52100
C265        C  0.40625743  0.12557270  0.37174532     0.11000
C266        C  0.42205625  0.12437870  0.66892189     0.22000
C267        C  0.41158137  0.19632850  0.66701131    -0.52900
C268        C  0.45185022  0.16347490  0.33066237     0.11100
C269        C  0.36270155  0.15163287  0.63786765    -0.52400
C270        C  0.39084688  0.12177218  0.63661796     0.11700
H271        H  0.36060994  0.16396808  0.39676151     0.16200
H272        H  0.44513782  0.10036105  0.66793930     0.02000
H273        H  0.41936714  0.22783969  0.66604942     0.16500
H274        H  0.33901228  0.15490776  0.61688848     0.16300
C275        C  0.37088932  0.80626045  0.66474697     0.88100
C276        C  0.36921713  0.83495443  0.63044542    -0.52100
C277        C  0.39250713  0.86833601  0.63487587     0.11000
C278        C  0.40717150  0.86692911  0.34121223     0.22000
C279        C  0.40400525  0.79425783  0.33948863    -0.52900
C280        C  0.43875300  0.83024854  0.67388855     0.11100
C281        C  0.34746568  0.83278764  0.36498804    -0.52400
C282        C  0.37198597  0.86478807  0.37039835     0.11700
H283        H  0.35192845  0.82875174  0.60483325     0.16200
H284        H  0.42744035  0.89291045  0.34485222     0.02000
H285        H  0.41484553  0.76361478  0.33982740     0.16500
H286        H  0.32126878  0.82702210  0.38294584     0.16300
O287        O  0.74765596  0.03729326  0.46695525    -0.72800
O288        O  0.72567640  0.95940847  0.54587166    -0.72800
O289        O  0.73610488  0.95704045  0.46852135    -0.72900
O290        O  0.73871572  0.03941734  0.54402552    -0.73000
O291        O  0.67290313  0.04940819  0.53750425    -0.72900
O292        O  0.67034453  0.96623781  0.46087670    -0.72900
O293        O  0.66004457  0.96975125  0.53857417    -0.72800
O294        O  0.68179256  0.04621895  0.45992286    -0.72900
Ni295      Ni  0.73937082  0.99786787  0.50660398     1.25400
Ni296      Ni  0.66892432  0.00822774  0.49894368     1.25400
C297        C  0.71801173  0.05458256  0.45053731     0.89400
C298        C  0.68905569  0.95212653  0.55533934     0.89300
C299        C  0.70318942  0.94816211  0.45205782     0.89300
C300        C  0.70653515  0.05800073  0.55318909     0.89500
C301        C  0.70846648  0.18881860  0.66981769     0.88100
C302        C  0.71009891  0.16254356  0.63368461    -0.52100
C303        C  0.68241136  0.13235005  0.63401496     0.11000
C304        C  0.65603122  0.13151729  0.67036330     0.22000
C305        C  0.67707562  0.20111328  0.33551286    -0.52900
C306        C  0.63775442  0.17350509  0.67268689     0.11100
C307        C  0.72478202  0.16125432  0.37221697    -0.52400
C308        C  0.70100487  0.12835992  0.36758769     0.11700
H309        H  0.73090680  0.16769558  0.61001559     0.16200
H310        H  0.65739066  0.10187917  0.32696250     0.02000
H311        H  0.66513109  0.23131272  0.33698805     0.16500
H312        H  0.74312829  0.16623393  0.39740737     0.16300
C313        C  0.70772833  0.80830043  0.66838118     0.88100
C314        C  0.70367802  0.84562341  0.36908440    -0.52100
C315        C  0.67604650  0.87606244  0.36958213     0.11000
C316        C  0.66456135  0.87274548  0.66209860     0.22000
C317        C  0.66269989  0.79995838  0.66490674    -0.52900
C318        C  0.62815999  0.83235680  0.33823647     0.09900
C319        C  0.71885570  0.83367570  0.63340690    -0.52400
C320        C  0.69650607  0.86756714  0.62985919     0.11700
H321        H  0.72635673  0.84146050  0.39089935     0.16200
H322        H  0.64603268  0.90024028  0.65993857     0.02000
H323        H  0.64981142  0.77018566  0.66615230     0.16500
H324        H  0.74304132  0.82596632  0.61357078     0.16300
O325        O  0.08832200  0.31396289  0.46876075    -0.72800
O326        O  0.00636815  0.33242798  0.54375997    -0.72800
O327        O  0.00692579  0.31619150  0.46782358    -0.72900
O328        O  0.08710134  0.33116170  0.54457298    -0.73000
O329        O  0.08882157  0.39642915  0.53159046    -0.72900
O330        O  0.00835667  0.38152479  0.45515524    -0.72900
O331        O  0.00787926  0.39789048  0.53180690    -0.72800
O332        O  0.08986386  0.37903270  0.45489461    -0.72900
Ni333      Ni  0.04715275  0.32117153  0.50660596     1.25400
Ni334      Ni  0.04882059  0.39110043  0.49277179     1.25400
C335        C  0.10268543  0.34318674  0.44950271     0.89400
C336        C  0.99386547  0.36793595  0.55055702     0.89300
C337        C  0.99414379  0.34655262  0.44914057     0.89300
C338        C  0.10064247  0.36633092  0.55112638     0.89500
C339        C  0.23267877  0.32923670  0.67098256     0.88100
C340        C  0.20714489  0.32049807  0.63575362    -0.52100
C341        C  0.17629815  0.34662711  0.63098832     0.11000
C342        C  0.17360566  0.36845229  0.32260959     0.22000
C343        C  0.24658070  0.36690873  0.32384942    -0.52900
C344        C  0.21495046  0.39870501  0.66248053     0.11100
C345        C  0.20790759  0.32541903  0.36826130    -0.52400
C346        C  0.17510696  0.34954042  0.36274312     0.11700
H347        H  0.21287061  0.29568851  0.61625144     0.16200
H348        H  0.14703164  0.38804566  0.31883445     0.02000
H349        H  0.27703057  0.37841252  0.32347188     0.16500
H350        H  0.21412875  0.31037987  0.39520562     0.16300
C351        C  0.85569804  0.32645969  0.66591415     0.88100
C352        C  0.88755919  0.33765591  0.37173503    -0.52100
C353        C  0.91753417  0.36543882  0.36895104     0.11000
C354        C  0.91609780  0.37519833  0.66084865     0.22000
C355        C  0.84333010  0.37064544  0.66589187    -0.52900
C356        C  0.87204934  0.41005067  0.33511232     0.11100
C357        C  0.88099995  0.32062767  0.62942622    -0.52400
C358        C  0.91259353  0.34632046  0.62650077     0.11700
H359        H  0.88462440  0.31673250  0.39541718     0.16200
H360        H  0.94189214  0.39608813  0.65899596     0.02000
H361        H  0.81241862  0.38084950  0.66792065     0.16500
H362        H  0.87478479  0.29787776  0.60798429     0.16300
O363        O  0.99639175  0.71204478  0.46107596    -0.72800
O364        O  0.07871343  0.70829279  0.53652958    -0.72800
O365        O  0.07785046  0.70830259  0.45894298    -0.72900
O366        O  0.99722041  0.71111734  0.53856323    -0.73000
O367        O  0.99510035  0.64449110  0.53801030    -0.72900
O368        O  0.07527816  0.64169037  0.45862027    -0.72900
O369        O  0.07649688  0.64165083  0.53670446    -0.72800
O370        O  0.99394900  0.64541958  0.46005627    -0.72900
Ni371      Ni  0.03765114  0.71228216  0.49879905     1.25400
Ni372      Ni  0.03511497  0.64091209  0.49834613     1.25400
C373        C  0.98150307  0.67955971  0.44821201     0.89400
C374        C  0.09129987  0.67462689  0.54896306     0.89300
C375        C  0.08988565  0.67448536  0.44578633     0.89300
C376        C  0.98272589  0.67813779  0.55116224     0.89500
C377        C  0.22547022  0.66733559  0.66149931     0.88100
C378        C  0.19532291  0.66478450  0.36520697    -0.52100
C379        C  0.16287426  0.63977207  0.36571252     0.11000
C380        C  0.16595978  0.61726109  0.66288904     0.22000
C381        C  0.23873831  0.62354560  0.66218492    -0.52900
C382        C  0.20186400  0.59037717  0.32891146     0.11100
C383        C  0.19781833  0.67095193  0.62666716    -0.52400
C384        C  0.16631556  0.64468472  0.62744879     0.11700
H385        H  0.20143861  0.68632437  0.38776186     0.16200
H386        H  0.14064417  0.59569238  0.66343805     0.02000
H387        H  0.26992712  0.61401634  0.66182106     0.16500
H388        H  0.20301018  0.69214659  0.60354763     0.16300
C389        C  0.84837436  0.67908626  0.33341107     0.88100
C390        C  0.87593760  0.67122398  0.63153184    -0.52100
C391        C  0.90860113  0.64634356  0.63074127     0.11000
C392        C  0.90673001  0.62742799  0.33269928     0.22000
C393        C  0.83415264  0.63548693  0.33284949    -0.52900
C394        C  0.87038163  0.59603179  0.66587934     0.11100
C395        C  0.87589453  0.68219906  0.36845750    -0.52400
C396        C  0.90668128  0.65496845  0.36802507     0.11700
H397        H  0.86967903  0.69295505  0.60919319     0.16200
H398        H  0.93157005  0.60519871  0.33240912     0.02000
H399        H  0.80279401  0.62670086  0.33284701     0.16500
H400        H  0.87101121  0.70356256  0.39154270     0.16300
C401        C  0.93969516  0.64605959  0.60010301    -0.14800
C402        C  0.95093431  0.67915323  0.58097132    -0.30000
H403        H  0.95545014  0.61808512  0.59495161     0.14200
H404        H  0.93726984  0.70777940  0.58796069     0.14800
C405        C  0.94934480  0.68249082  0.41952031    -0.14800
C406        C  0.93749941  0.65123669  0.39830475    -0.30000
H407        H  0.93637109  0.71181235  0.41456316     0.14200
H408        H  0.95256801  0.62261533  0.40133515     0.14800
C409        C  0.12371702  0.67499621  0.57750231    -0.14800
C410        C  0.13471227  0.64267894  0.59772070    -0.30000
H411        H  0.13793709  0.70356740  0.58304939     0.14200
H412        H  0.11856100  0.61476987  0.59427532     0.14800
C413        C  0.12148448  0.67372472  0.41574204    -0.14800
C414        C  0.13130271  0.64030639  0.39611569    -0.30000
H415        H  0.13638795  0.70172582  0.40905710     0.14200
H416        H  0.11440581  0.61301880  0.40090676     0.14800
C417        C  0.86451777  0.45235848  0.33397346    -0.16900
C418        C  0.86023338  0.48806777  0.33314132     0.07200
C419        C  0.86688140  0.51704931  0.66459791     0.09000
C420        C  0.86740124  0.55306798  0.66525342    -0.17700
C421        C  0.21970745  0.44130922  0.66085094    -0.16900
C422        C  0.22012226  0.47723865  0.66085170     0.07200
C423        C  0.21733803  0.51919339  0.66167990     0.09000
C424        C  0.20620784  0.54750384  0.32543847    -0.17700
C425        C  0.96210790  0.34082022  0.42072864    -0.14800
C426        C  0.95000452  0.37041451  0.39737277    -0.30000
H427        H  0.94863447  0.31139530  0.41879401     0.14200
H428        H  0.96525593  0.39905732  0.39798769     0.14800
C429        C  0.94180276  0.34312467  0.59447072    -0.14800
C430        C  0.96333869  0.37410036  0.58102221    -0.30000
H431        H  0.94498171  0.31398183  0.58092776     0.14200
H432        H  0.95848826  0.40399961  0.59231991     0.14800
C433        C  0.14789794  0.34168282  0.59912659    -0.14800
C434        C  0.12960195  0.37261980  0.58225482    -0.30000
H435        H  0.14325784  0.31159097  0.58824901     0.14200
H436        H  0.13615863  0.40301042  0.59119480     0.14800
C437        C  0.13470906  0.33435930  0.42112946    -0.14800
C438        C  0.14441134  0.35940188  0.39248856    -0.30000
H439        H  0.14919630  0.30531597  0.42275891     0.14200
H440        H  0.12774343  0.38710984  0.38924000     0.14800
C441        C  0.73282604  0.77238476  0.67129257    -0.16900
C442        C  0.75572774  0.75982543  0.33442087     0.07200
C443        C  0.78760761  0.73176084  0.33409234     0.09000
C444        C  0.81508994  0.70813154  0.33380517    -0.17700
C445        C  0.73826467  0.22095003  0.66960287    -0.16900
C446        C  0.76373272  0.24641915  0.66958702     0.07200
C447        C  0.79457989  0.27514966  0.66931119     0.09000
C448        C  0.82174516  0.29880615  0.66838934    -0.17700
C449        C  0.67354933  0.90767866  0.39961993    -0.14800
C450        C  0.70444323  0.91640286  0.42267685    -0.30000
H451        H  0.64606187  0.92505014  0.40174612     0.14200
H452        H  0.73275089  0.90072085  0.41922309     0.14800
C453        C  0.70605456  0.89707940  0.59937607    -0.14800
C454        C  0.67922868  0.92342817  0.58621661    -0.30000
H455        H  0.73578256  0.89593142  0.58632306     0.14200
H456        H  0.64865402  0.92303738  0.59719425     0.14800
C457        C  0.70943149  0.08981855  0.58217348    -0.14800
C458        C  0.67784537  0.10260465  0.60286914    -0.30000
H459        H  0.73918404  0.10116073  0.58841839     0.14200
H460        H  0.64869140  0.08878168  0.59907386     0.14800
C461        C  0.72546102  0.08514950  0.42076537    -0.14800
C462        C  0.69630544  0.09621537  0.39644406    -0.30000
H463        H  0.75506655  0.09849319  0.41869852     0.14200
H464        H  0.66781078  0.08051780  0.39690600     0.14800
C465        C  0.25944388  0.69523248  0.66054333    -0.16900
C466        C  0.28755352  0.71787756  0.65973804     0.07200
C467        C  0.31955872  0.74548429  0.65944926     0.09000
C468        C  0.34476957  0.77125795  0.66059027    -0.17700
C469        C  0.48213374  0.82924283  0.67323461    -0.16900
C470        C  0.51828781  0.82995669  0.67039287     0.07200
C471        C  0.54969703  0.82290497  0.34445157     0.09000
C472        C  0.58559976  0.82590165  0.34163521    -0.17700
C473        C  0.26524446  0.30024586  0.67506584    -0.16900
C474        C  0.28951692  0.27362522  0.67583271     0.07200
C475        C  0.32894161  0.24347273  0.33844520     0.09000
C476        C  0.35352578  0.21685638  0.33720823    -0.17700
C477        C  0.59522377  0.17999225  0.67207438    -0.16900
C478        C  0.55929804  0.18150707  0.67008899     0.07200
C479        C  0.53128356  0.16967142  0.32757241     0.09000
C480        C  0.49504382  0.16772755  0.32835190    -0.17700
C481        C  0.39737259  0.90012286  0.60548809    -0.14800
C482        C  0.36900685  0.90796212  0.57943915    -0.30000
H483        H  0.42396857  0.91876176  0.60672067     0.14200
H484        H  0.34103822  0.89140264  0.58006857     0.14800
C485        C  0.36380827  0.89435553  0.40123681    -0.14800
C486        C  0.39308137  0.91607557  0.41702377    -0.30000
H487        H  0.33333504  0.89690920  0.41234462     0.14200
H488        H  0.42395197  0.91163002  0.40777252     0.14800
C489        C  0.36190791  0.07865568  0.58516379    -0.14800
C490        C  0.39324092  0.09034077  0.60661206    -0.30000
H491        H  0.33231484  0.09136425  0.59007819     0.14200
H492        H  0.42209202  0.07562286  0.60285159     0.14800
C493        C  0.37691954  0.08456268  0.42348099    -0.14800
C494        C  0.40918223  0.09527075  0.40264974    -0.30000
H495        H  0.34802785  0.09824145  0.41764241     0.14200
H496        H  0.43730047  0.07923396  0.40595653     0.14800
O497        O  0.35434657  0.95441251  0.79187305    -0.72800
O498        O  0.33621680  0.02916988  0.87507221    -0.72800
O499        O  0.34400835  0.03453412  0.79815684    -0.72900
O500        O  0.34406023  0.94839827  0.86877836    -0.73000
O501        O  0.41004495  0.95457876  0.87715365    -0.72900
O502        O  0.41036245  0.04110693  0.80337573    -0.72900
O503        O  0.40247719  0.03523699  0.88084030    -0.72800
O504        O  0.42036579  0.96109617  0.79963983    -0.72900
Ni505      Ni  0.34232430  0.99132940  0.83325999     1.25400
Ni506      Ni  0.41319747  0.99820317  0.84056858     1.25400
C507        C  0.39067111  0.94581861  0.78208485     0.89400
C508        C  0.36688959  0.04494002  0.89121761     0.89300
C509        C  0.37667134  0.05190208  0.78890824     0.89300
C510        C  0.37648659  0.93720887  0.88470637     0.89500
C511        C  0.36862577  0.18086168  0.67133893     0.88100
C512        C  0.36897250  0.15480021  0.70751754    -0.52100
C513        C  0.39715436  0.12491635  0.70624620     0.11000
C514        C  0.42585091  0.12458123  0.00111279     0.22000
C515        C  0.41625075  0.19650996  0.99634685    -0.52900
C516        C  0.43942275  0.16663197  0.66593069     0.11100
C517        C  0.36502170  0.15108204  0.97213734    -0.52400
C518        C  0.39270571  0.12081106  0.97078314     0.11700
H519        H  0.34918178  0.16015586  0.73193758     0.16200
H520        H  0.44849591  0.10015750  0.99998257     0.02000
H521        H  0.42435841  0.22778153  0.99318342     0.16500
H522        H  0.34020279  0.15357888  0.95228513     0.16300
C523        C  0.36843829  0.80384667  0.99927777     0.88100
C524        C  0.36930363  0.83164130  0.96417811    -0.52100
C525        C  0.39345045  0.86448046  0.96877835     0.11000
C526        C  0.41494282  0.86961886  0.67327023     0.22000
C527        C  0.41566893  0.79682957  0.66979517    -0.52900
C528        C  0.43657159  0.82608590  0.01063118     0.11100
C529        C  0.35884288  0.83160805  0.69951401    -0.52400
C530        C  0.38166584  0.86486444  0.70425375     0.11700
H531        H  0.35290323  0.82525285  0.93808197     0.16200
H532        H  0.43386378  0.89666842  0.67640537     0.02000
H533        H  0.42810906  0.76682601  0.66843651     0.16500
H534        H  0.33386559  0.82421867  0.71850070     0.16300
O535        O  0.75144098  0.03801931  0.79105991    -0.72800
O536        O  0.75173067  0.95798151  0.86985986    -0.72800
O537        O  0.75112935  0.95686253  0.79233266    -0.72900
O538        O  0.75263740  0.03909779  0.86858798    -0.73000
O539        O  0.68571926  0.03955893  0.87049853    -0.72900
O540        O  0.68419124  0.95780105  0.79272945    -0.72900
O541        O  0.68480221  0.95854093  0.87085474    -0.72800
O542        O  0.68451555  0.03887813  0.79247831    -0.72900
Ni543      Ni  0.75408228  0.99796734  0.83039310     1.25400
Ni544      Ni  0.68238429  0.99870483  0.83167279     1.25400
C545        C  0.71795022  0.05184384  0.77907024     0.89400
C546        C  0.71827704  0.94503735  0.88324052     0.89300
C547        C  0.71761065  0.94375233  0.77999870     0.89300
C548        C  0.71959987  0.05284655  0.88215269     0.89500
C549        C  0.71313349  0.18608089  0.99777472     0.88100
C550        C  0.71906017  0.15731958  0.96377270    -0.52100
C551        C  0.69153265  0.12695157  0.96296311     0.11000
C552        C  0.66096209  0.12851465  0.99624687     0.22000
C553        C  0.66503514  0.20373643  0.67253148    -0.52900
C554        C  0.64252420  0.17039416  0.99399175     0.11100
C555        C  0.71345388  0.15975521  0.70343853    -0.52400
C556        C  0.68602124  0.12939143  0.70362974     0.11700
H557        H  0.74231889  0.16133742  0.94209654     0.16200
H558        H  0.63350387  0.10706111  0.67055062     0.02000
H559        H  0.65663108  0.23511894  0.67334075     0.16500
H560        H  0.73651613  0.16310406  0.72504732     0.16300
C561        C  0.70793180  0.81501063  0.00063920     0.88100
C562        C  0.71148237  0.83666249  0.70279381    -0.52100
C563        C  0.68877657  0.87064808  0.69950316     0.11000
C564        C  0.65836976  0.87504067  0.99935454     0.22000
C565        C  0.66363012  0.80252436  0.00185634    -0.52900
C566        C  0.64005188  0.83380934  0.66193940     0.09900
C567        C  0.71238363  0.84116308  0.96470761    -0.52400
C568        C  0.68650026  0.87294909  0.96410028     0.11700
H569        H  0.72997308  0.83011415  0.72755826     0.16200
H570        H  0.63711776  0.90067708  0.99882979     0.02000
H571        H  0.65372274  0.77165540  0.00350566     0.16500
H572        H  0.73406675  0.83499721  0.94197947     0.16300
O573        O  0.08616842  0.30383348  0.79992382    -0.72800
O574        O  0.00092770  0.30388857  0.87291631    -0.72800
O575        O  0.00543827  0.29614180  0.79595068    -0.72900
O576        O  0.08156493  0.31345209  0.87695294    -0.73000
O577        O  0.07463375  0.37931335  0.86941137    -0.72900
O578        O  0.99925205  0.36217029  0.78934479    -0.72900
O579        O  0.99408216  0.36997065  0.86704729    -0.72800
O580        O  0.08000576  0.36969477  0.79170275    -0.72900
Ni581      Ni  0.04381164  0.30202764  0.83669728     1.25400
Ni582      Ni  0.03677346  0.37269143  0.82911491     1.25400
C583        C  0.09702006  0.33619859  0.78354121     0.89400
C584        C  0.98343320  0.33650465  0.88208147     0.89300
C585        C  0.98980108  0.32662027  0.77941983     0.89300
C586        C  0.09042775  0.34946883  0.88647125     0.89500
C587        C  0.23161435  0.32542421  0.00120198     0.88100
C588        C  0.20581141  0.31418056  0.96674140    -0.52100
C589        C  0.17294636  0.33790479  0.96223619     0.11000
C590        C  0.17347468  0.37896358  0.66253391     0.22000
C591        C  0.24624555  0.37278280  0.66669699    -0.52900
C592        C  0.20907066  0.39357731  0.99172438     0.11100
C593        C  0.20316908  0.32938230  0.70492228    -0.52400
C594        C  0.17179357  0.35553644  0.70056533     0.11700
H595        H  0.21265795  0.28920611  0.94776909     0.16200
H596        H  0.14816917  0.40028882  0.65913225     0.02000
H597        H  0.27735776  0.38228092  0.66778531     0.16500
H598        H  0.20750913  0.31096145  0.73020977     0.16300
C599        C  0.85400630  0.33133367  0.00141487     0.88100
C600        C  0.88538156  0.32215664  0.69904697    -0.52100
C601        C  0.91724810  0.34774688  0.69639369     0.11000
C602        C  0.91259401  0.38239608  0.00259606     0.22000
C603        C  0.84008370  0.37480970  0.00691736    -0.52900
C604        C  0.87512256  0.39607678  0.66330325     0.11100
C605        C  0.87927741  0.33167390  0.96433904    -0.52400
C606        C  0.91018949  0.35860048  0.96499205     0.11700
H607        H  0.88096647  0.30146395  0.72272929     0.16200
H608        H  0.93760567  0.40431440  0.00306770     0.02000
H609        H  0.80879703  0.38372979  0.00914905     0.16500
H610        H  0.87295658  0.31259120  0.93987668     0.16300
O611        O  0.99727789  0.71105039  0.79091827    -0.72800
O612        O  0.07804214  0.71018181  0.86866886    -0.72800
O613        O  0.07881463  0.71016601  0.79093366    -0.72900
O614        O  0.99655140  0.71129002  0.86850822    -0.73000
O615        O  0.99604290  0.64461703  0.86887874    -0.72900
O616        O  0.07821710  0.64349939  0.79069360    -0.72900
O617        O  0.07726345  0.64351015  0.86889768    -0.72800
O618        O  0.99693248  0.64436908  0.79092498    -0.72900
Ni619      Ni  0.03771800  0.71303885  0.82974351     1.25400
Ni620      Ni  0.03710614  0.64161740  0.82983407     1.25400
C621        C  0.98369961  0.67780736  0.77830711     0.89400
C622        C  0.09084711  0.67673152  0.88163478     0.89300
C623        C  0.09207418  0.67676858  0.77803660     0.89300
C624        C  0.98272351  0.67821336  0.88142490     0.89500
C625        C  0.22353545  0.66335991  0.99569805     0.88100
C626        C  0.19771764  0.67246997  0.69662204    -0.52100
C627        C  0.16621487  0.64618303  0.69732180     0.11000
C628        C  0.16222033  0.61538918  0.99609749     0.22000
C629        C  0.23519308  0.61899436  0.99424648    -0.52900
C630        C  0.20751706  0.59746014  0.66284167     0.11100
C631        C  0.19533816  0.66960918  0.96164776    -0.52400
C632        C  0.16296552  0.64449028  0.96184421     0.11700
H633        H  0.20288058  0.69460407  0.71885841     0.16200
H634        H  0.13608788  0.59480843  0.99619407     0.02000
H635        H  0.26600791  0.60839700  0.99300599     0.16500
H636        H  0.20096672  0.69154023  0.93926635     0.16300
C637        C  0.84889794  0.66515940  0.66702160     0.88100
C638        C  0.87729632  0.67496122  0.96293207    -0.52100
C639        C  0.90920502  0.64910707  0.96269417     0.11000
C640        C  0.91077449  0.61787061  0.66528904     0.22000
C641        C  0.83779716  0.62067860  0.66681000    -0.52900
C642        C  0.86965592  0.60125662  0.99995790     0.11100
C643        C  0.87678937  0.67049566  0.70142212    -0.52400
C644        C  0.90948616  0.64573911  0.70039553     0.11700
H645        H  0.87143017  0.69609004  0.93997423     0.16200
H646        H  0.93721682  0.59757046  0.66458001     0.02000
H647        H  0.80713537  0.60973036  0.66728821     0.16500
H648        H  0.87102255  0.69176784  0.72442107     0.16300
C649        C  0.94024268  0.64733862  0.93190029    -0.14800
C650        C  0.95075134  0.67951483  0.91102026    -0.30000
H651        H  0.95648110  0.61941929  0.92807887     0.14200
H652        H  0.93663863  0.70821363  0.91675917     0.14800
C653        C  0.95188733  0.67841942  0.74920455    -0.14800
C654        C  0.94135230  0.64544334  0.72970075    -0.30000
H655        H  0.93744493  0.70682658  0.74316063     0.14200
H656        H  0.95784689  0.61776195  0.73378466     0.14800
C657        C  0.12207139  0.67701627  0.91140978    -0.14800
C658        C  0.13148172  0.64432458  0.93196178    -0.30000
H659        H  0.13686291  0.70523326  0.91720536     0.14200
H660        H  0.11459670  0.61692490  0.92799311     0.14800
C661        C  0.12410730  0.67743980  0.74841805    -0.14800
C662        C  0.13470902  0.64501604  0.72779983    -0.30000
H663        H  0.13835189  0.70597029  0.74257443     0.14200
H664        H  0.11845082  0.61721502  0.73181754     0.14800
C665        C  0.87069691  0.43893013  0.66343175    -0.16900
C666        C  0.86820515  0.47487512  0.66386056     0.07200
C667        C  0.86354785  0.52247378  0.00511052     0.09000
C668        C  0.86532144  0.55841063  0.00258960    -0.17700
C669        C  0.21118818  0.43664942  0.98988062    -0.16900
C670        C  0.21109260  0.47273785  0.99001420     0.07200
C671        C  0.20937337  0.51498424  0.99127656     0.09000
C672        C  0.21324968  0.55490199  0.66244095    -0.17700
C673        C  0.95985374  0.32084697  0.74892230    -0.14800
C674        C  0.94902483  0.35112677  0.72569785    -0.30000
H675        H  0.94667846  0.29142529  0.74551568     0.14200
H676        H  0.96443268  0.37962393  0.72761967     0.14800
C677        C  0.93967095  0.36428977  0.93331682    -0.14800
C678        C  0.95053665  0.33392638  0.91037222    -0.30000
H679        H  0.95536977  0.39263733  0.93132440     0.14200
H680        H  0.93742139  0.30459318  0.91487390     0.14800
C681        C  0.14360841  0.32963716  0.93148508    -0.14800
C682        C  0.11894266  0.35768073  0.91766522    -0.30000
H683        H  0.14350446  0.29992411  0.91882654     0.14200
H684        H  0.12072642  0.38813959  0.92825169     0.14800
C685        C  0.12993878  0.33312286  0.75525200    -0.14800
C686        C  0.13927338  0.36155602  0.72954784    -0.30000
H687        H  0.14568097  0.30471710  0.75442199     0.14200
H688        H  0.12161596  0.38883420  0.72839812     0.14800
C689        C  0.73611815  0.78113964  0.00112215    -0.16900
C690        C  0.75638802  0.74502050  0.67142686     0.07200
C691        C  0.78659825  0.71545776  0.66997001     0.09000
C692        C  0.81404459  0.69199388  0.66835800    -0.17700
C693        C  0.74253369  0.21881512  0.99862632    -0.16900
C694        C  0.76669957  0.24564476  0.99929411     0.07200
C695        C  0.79557170  0.27656320  0.00004714     0.09000
C696        C  0.82117248  0.30203425  0.00066644    -0.17700
C697        C  0.68687579  0.90263879  0.72899466    -0.14800
C698        C  0.71843405  0.91151317  0.75111570    -0.30000
H699        H  0.65975155  0.92060192  0.73094024     0.14200
H700        H  0.74661260  0.89567006  0.74690586     0.14800
C701        C  0.68578367  0.90357004  0.93333284    -0.14800
C702        C  0.71880332  0.91381633  0.91314807    -0.30000
H703        H  0.65786471  0.91963260  0.92888107     0.14200
H704        H  0.74741611  0.89982444  0.91945992     0.14800
C705        C  0.72148071  0.08467716  0.91144824    -0.14800
C706        C  0.68952834  0.09567868  0.93275016    -0.30000
H707        H  0.75049188  0.09828362  0.91650191     0.14200
H708        H  0.66124506  0.08007765  0.92929508     0.14800
C709        C  0.71851650  0.08377077  0.74990995    -0.14800
C710        C  0.68512048  0.09684153  0.73248117    -0.30000
H711        H  0.74743966  0.09654701  0.74234755     0.14200
H712        H  0.65659609  0.08225911  0.73811949     0.14800
C713        C  0.25817147  0.69066793  0.99516505    -0.16900
C714        C  0.28578444  0.71403448  0.99437918     0.07200
C715        C  0.31687001  0.74286000  0.99397362     0.09000
C716        C  0.34164801  0.76916714  0.99504106    -0.17700
C717        C  0.47991771  0.82386944  0.01148680    -0.16900
C718        C  0.51616133  0.82423988  0.00975769     0.07200
C719        C  0.56056271  0.83161350  0.66609864     0.09000
C720        C  0.59668505  0.83294637  0.66311352    -0.17700
C721        C  0.26626991  0.29868409  0.00530331    -0.16900
C722        C  0.29223124  0.27360165  0.00671698     0.07200
C723        C  0.31621265  0.24102584  0.67469670     0.09000
C724        C  0.33912572  0.21325149  0.67305649    -0.17700
C725        C  0.59999523  0.17664117  0.99136107    -0.16900
C726        C  0.56400690  0.17841345  0.98990697     0.07200
C727        C  0.51735824  0.17913472  0.66726045     0.09000
C728        C  0.48170757  0.17440068  0.66564078    -0.17700
C729        C  0.40020978  0.89598459  0.93929853    -0.14800
C730        C  0.37336963  0.90353716  0.91180550    -0.30000
H731        H  0.42625372  0.91518247  0.94213227     0.14200
H732        H  0.34580523  0.88636761  0.91087364     0.14800
C733        C  0.37211798  0.89382705  0.73526391    -0.14800
C734        C  0.39965777  0.91826507  0.75003350    -0.30000
H735        H  0.34203698  0.89349398  0.74759804     0.14200
H736        H  0.43045600  0.91679364  0.73969119     0.14800
C737        C  0.36177943  0.07558909  0.92162651    -0.14800
C738        C  0.39363838  0.08818710  0.94194942    -0.30000
H739        H  0.33219175  0.08817741  0.92682421     0.14200
H740        H  0.42248754  0.07360992  0.93771613     0.14800
C741        C  0.37369629  0.08478642  0.76118434    -0.14800
C742        C  0.40354156  0.09527421  0.73728381    -0.30000
H743        H  0.34417466  0.09801835  0.75780640     0.14200
H744        H  0.43200116  0.07945524  0.73825809     0.14800
loop_ 
_geom_bond_atom_site_label_1 
_geom_bond_atom_site_label_2 
_geom_bond_distance 
_geom_bond_site_symmetry_2 
_ccdc_geom_bond_type 
O1           Ni9   1.939       .  S
O1           C11   1.287       .  A
O2           Ni9   1.940   1_545  S
O2           C12   1.286       .  A
O3           Ni9   1.893   1_545  S
O3           C13   1.274       .  A
O4           Ni9   1.896       .  S
O4           C14   1.274       .  A
O5          Ni10   1.941       .  S
O5           C14   1.287       .  A
O6          Ni10   1.938   1_545  S
O6           C13   1.286       .  A
O7          Ni10   1.899   1_545  S
O7           C12   1.277       .  A
O8          Ni10   1.901       .  S
O8           C11   1.275       .  A
Ni9         Ni10   2.390       .  S
C11         C238   1.476       .  S
C12         C241   1.482       .  S
C13         C245   1.468       .  S
C14         C234   1.473       .  S
C15          C16   1.533       .  S
C15         C517   1.537   1_554  S
C15         C515   1.532   1_554  S
C15         C228   1.468       .  S
C16          H23   1.086       .  S
C16          C17   1.371       .  D
C17         C514   1.534       .  S
C17         C246   1.484       .  S
C18          C22   1.541       .  S
C18         C265   1.535       .  S
C18         C268   1.535       .  S
C18          H24   1.112       .  S
C19         C263   1.538       .  S
C19          H25   1.086       .  S
C19         C268   1.365       .  D
C20         C514   1.532   1_556  S
C20         C515   1.360       .  D
C20         C232   1.437       .  S
C21         C263   1.537       .  S
C21          H26   1.086       .  S
C21          C22   1.369       .  D
C22         C242   1.483       .  S
C27          C28   1.535       .  S
C27         C281   1.530       .  S
C27         C279   1.533       .  S
C27         C220   1.468       .  S
C28          H35   1.085       .  S
C28          C29   1.374       .  D
C29         C278   1.537       .  S
C29         C233   1.488       .  S
C30          C34   1.549       .  S
C30         C525   1.536   1_554  S
C30         C528   1.536       .  S
C30          H36   1.110       .  S
C31         C523   1.537   1_554  S
C31          H37   1.086       .  S
C31         C528   1.367       .  D
C32         C278   1.533       .  S
C32         C279   1.362       .  D
C32         C221   1.439       .  S
C33         C523   1.529   1_554  S
C33          H38   1.087       .  S
C33          C34   1.361       .  D
C34         C237   1.486       .  S
O39         Ni47   1.906       .  S
O39          C49   1.277       .  A
O40         Ni47   1.905   1_565  S
O40          C50   1.277       .  A
O41         Ni47   1.928   1_565  S
O41          C51   1.283       .  A
O42         Ni47   1.926       .  S
O42          C52   1.284       .  A
O43         Ni48   1.907       .  S
O43          C52   1.277       .  A
O44         Ni48   1.908   1_565  S
O44          C51   1.280       .  A
O45         Ni48   1.933   1_565  S
O45          C50   1.285       .  A
O46         Ni48   1.934       .  S
O46          C49   1.285       .  A
Ni47        Ni48   2.390       .  S
C49         C213   1.476       .  S
C50         C206   1.473       .  S
C51         C202   1.478       .  S
C52         C209   1.472       .  S
C53          C54   1.530       .  S
C53         C307   1.534       .  S
C53         C305   1.538       .  S
C53         C197   1.467       .  S
C54          H61   1.087       .  S
C54          C55   1.362       .  D
C55          C56   1.545       .  S
C55         C210   1.479       .  S
C56          C58   1.536       .  S
C56         C308   1.539       .  S
C56         H310   1.110       .  S
C57         C549   1.533       .  S
C57          H63   1.087       .  S
C57         C554   1.362       .  D
C58         C305   1.365       .  D
C58         C229   1.449       .  S
C59         C549   1.535   1_554  S
C59          H64   1.085       .  S
C59          C60   1.372       .  D
C60         C552   1.537   1_554  S
C60         C214   1.487       .  S
H62         C552   1.112       .  S
C65          C71   1.532       .  S
C65          C69   1.534       .  S
C65         C314   1.533       .  S
C65         C193   1.473       .  S
C66         C561   1.536       .  S
C66          H73   1.086       .  S
C66          C67   1.369       .  D
C67         C564   1.539   1_554  S
C67         C201   1.481       .  S
C68          C72   1.538       .  S
C68         C315   1.539       .  S
C68         C318   1.535       .  S
C68          H74   1.112       .  S
C69          H75   1.086       .  S
C69         C318   1.364       .  D
C70         C564   1.536   1_554  S
C70         C565   1.364       .  D
C70         C224   1.448       .  S
C71          H76   1.086       .  S
C71          C72   1.370       .  D
C72         C205   1.487       .  S
O77         Ni85   1.904       .  S
O77          C87   1.277       .  A
O78         Ni85   1.905       .  S
O78          C88   1.277   1_455  A
O79         Ni85   1.935       .  S
O79          C89   1.285   1_455  A
O80         Ni85   1.936       .  S
O80          C90   1.286       .  A
O81         Ni86   1.900       .  S
O81          C90   1.276       .  A
O82         Ni86   1.899       .  S
O82          C89   1.278   1_455  A
O83         Ni86   1.931   1_655  S
O83          C88   1.285       .  A
O84         Ni86   1.931       .  S
O84          C87   1.285       .  A
Ni85        Ni86   2.390       .  S
C87         C189   1.472       .  S
C88         C182   1.473       .  S
C89         C177   1.479       .  S
C90         C186   1.473       .  S
C91          C92   1.530       .  S
C91         C345   1.539       .  S
C91         C343   1.539       .  S
C91         C225   1.474       .  S
C92          H99   1.087       .  S
C92          C93   1.362       .  D
C93         C342   1.547       .  S
C93         C185   1.484       .  S
C94          C98   1.538   1_556  S
C94         C589   1.547       .  S
C94         C592   1.536       .  S
C94         H100   1.110       .  S
C95         C587   1.536   1_556  S
C95         H101   1.086       .  S
C95         C592   1.366       .  D
C96         C342   1.533       .  S
C96         C343   1.366       .  D
C96         C173   1.446       .  S
C97         C587   1.532       .  S
C97         H102   1.085       .  S
C97          C98   1.370       .  D
C98         C190   1.484       .  S
C103        C109   1.534       .  S
C103        C107   1.532       .  S
C103        C352   1.532       .  S
C103        C200   1.467       .  S
C104        C599   1.534       .  S
C104        H111   1.086       .  S
C104        C105   1.367       .  D
C105        C602   1.540       .  S
C105        C178   1.481       .  S
C106        C110   1.536       .  S
C106        C353   1.538       .  S
C106        C356   1.533       .  S
C106        H112   1.112       .  S
C107        H113   1.087       .  S
C107        C356   1.361       .  D
C108        C602   1.533       .  S
C108        C603   1.365       .  D
C108        C169   1.444       .  S
C109        H114   1.086       .  S
C109        C110   1.371       .  D
C110        C181   1.484       .  S
O115       Ni123   1.917   1_655  S
O115        C125   1.280       .  A
O116       Ni123   1.916       .  S
O116        C126   1.280       .  A
O117       Ni123   1.915       .  S
O117        C127   1.280       .  A
O118       Ni123   1.914   1_655  S
O118        C128   1.279       .  A
O119       Ni124   1.926   1_655  S
O119        C128   1.284       .  A
O120       Ni124   1.928       .  S
O120        C127   1.283       .  A
O121       Ni124   1.916       .  S
O121        C126   1.281       .  A
O122       Ni124   1.916   1_655  S
O122        C125   1.281       .  A
Ni123      Ni124   2.390       .  S
C125        C157   1.473       .  S
C126        C161   1.471       .  S
C127        C165   1.478       .  S
C128        C154   1.476       .  S
C129        C135   1.530       .  S
C129        C133   1.533       .  S
C129        C378   1.532       .  S
C129        C217   1.468       .  S
C130        C625   1.535   1_554  S
C130        H137   1.086       .  S
C130        C131   1.371       .  D
C131        C628   1.540   1_554  S
C131        C166   1.488       .  S
C132        C136   1.539       .  S
C132        C379   1.542       .  S
C132        C382   1.540       .  S
C132        H138   1.111       .  S
C133        H139   1.086       .  S
C133        C382   1.364       .  D
C134        C628   1.536       .  S
C134        C629   1.364       .  D
C134        C176   1.445       .  S
C135        H140   1.086       .  S
C135        C136   1.368       .  D
C136        C162   1.481       .  S
C141        C147   1.533   1_556  S
C141        C145   1.536   1_556  S
C141        C638   1.534       .  S
C141        C196   1.471       .  S
C142        C389   1.536       .  S
C142        H149   1.085       .  S
C142        C143   1.371       .  D
C143        C392   1.536       .  S
C143        C153   1.484       .  S
C144        C148   1.537   1_556  S
C144        C639   1.538       .  S
C144        C642   1.534       .  S
C144        H150   1.112       .  S
C145        H151   1.086       .  S
C145        C642   1.364   1_554  D
C146        C392   1.530       .  S
C146        C393   1.362       .  D
C146        C172   1.438       .  S
C147        H152   1.086       .  S
C147        C148   1.369       .  D
C148        C158   1.480       .  S
C153        H155   1.086       .  S
C153        C154   1.343       .  D
C154        H156   1.086       .  S
C157        H159   1.086       .  S
C157        C158   1.344       .  D
C158        H160   1.086       .  S
C161        H163   1.086       .  S
C161        C162   1.345       .  D
C162        H164   1.086       .  S
C165        H167   1.086       .  S
C165        C166   1.345       .  D
C166        H168   1.086       .  S
C169        C170   1.207       .  T
C170        C667   1.415       .  S
C171        C172   1.203       .  T
C171        C418   1.409       .  S
C173        C174   1.208       .  T
C174        C175   1.417       .  S
C175        C424   1.209       .  T
C176        C671   1.208       .  T
C177        H179   1.085       .  S
C177        C178   1.349       .  D
C178        H180   1.086       .  S
C181        H183   1.086       .  S
C181        C182   1.341       .  D
C182        H184   1.086       .  S
C185        H187   1.087       .  S
C185        C186   1.338       .  D
C186        H188   1.085       .  S
C189        H191   1.086       .  S
C189        C190   1.341       .  D
C190        H192   1.086       .  S
C193        C442   1.209       .  T
C194        C689   1.207       .  T
C194        C195   1.414   1_554  S
C195        C196   1.207       .  T
C197        C198   1.205       .  T
C198        C199   1.411       .  S
C199        C200   1.205       .  T
C201        H203   1.086       .  S
C201        C202   1.347       .  D
C202        H204   1.086       .  S
C205        H207   1.086       .  S
C205        C206   1.343       .  D
C206        H208   1.086       .  S
C209        H211   1.086       .  S
C209        C210   1.339       .  D
C210        H212   1.087       .  S
C213        H215   1.085       .  S
C213        C214   1.342       .  D
C214        H216   1.086       .  S
C217        C218   1.205       .  T
C218        C219   1.411       .  S
C219        C220   1.206       .  T
C221        C222   1.204       .  T
C222        C471   1.410       .  S
C223        C224   1.209       .  T
C223        C718   1.418       .  S
C225        C226   1.209       .  T
C226        C475   1.418       .  S
C227        C228   1.206       .  T
C227        C722   1.411       .  S
C229        C230   1.210       .  T
C230        C479   1.419       .  S
C231        C232   1.203       .  T
C231        C726   1.407       .  S
C233        H235   1.086       .  S
C233        C234   1.339       .  D
C234        H236   1.085       .  S
C237        H239   1.087       .  S
C237        C238   1.338       .  D
C238        H240   1.085       .  S
C241        H243   1.085       .  S
C241        C242   1.350       .  D
C242        H244   1.086       .  S
C245        H247   1.086       .  S
C245        C246   1.338       .  D
C246        H248   1.086       .  S
O249       Ni257   1.929       .  S
O249        C259   1.285       .  A
O250       Ni257   1.929   1_545  S
O250        C260   1.283       .  A
O251       Ni257   1.905   1_545  S
O251        C261   1.277       .  A
O252       Ni257   1.906       .  S
O252        C262   1.277       .  A
O253       Ni258   1.929       .  S
O253        C262   1.285       .  A
O254       Ni258   1.929   1_545  S
O254        C261   1.284       .  A
O255       Ni258   1.907   1_545  S
O255        C260   1.280       .  A
O256       Ni258   1.907       .  S
O256        C259   1.277       .  A
Ni257      Ni258   2.390       .  S
C259        C486   1.474       .  S
C260        C489   1.478       .  S
C261        C493   1.471       .  S
C262        C482   1.472       .  S
C263        C264   1.533       .  S
C263        C476   1.475       .  S
C264        H271   1.086       .  S
C264        C265   1.369       .  D
C265        C494   1.482       .  S
C266        C513   1.535       .  S
C266        C270   1.541       .  S
C266        C516   1.532       .  S
C266        H272   1.112       .  S
C267        C511   1.530       .  S
C267        H273   1.087       .  S
C267        C516   1.359       .  D
C268        C480   1.449       .  S
C269        C511   1.534       .  S
C269        H274   1.085       .  S
C269        C270   1.370       .  D
C270        C490   1.483       .  S
C275        C276   1.533       .  S
C275        C529   1.527       .  S
C275        C527   1.537       .  S
C275        C468   1.469       .  S
C276        H283   1.085       .  S
C276        C277   1.371       .  D
C277        C526   1.537       .  S
C277        C481   1.484       .  S
C278        C282   1.546       .  S
C278        H284   1.110       .  S
C279        H285   1.087       .  S
C280        C526   1.537       .  S
C280        C527   1.367       .  D
C280        C469   1.446       .  S
C281        H286   1.087       .  S
C281        C282   1.362       .  D
C282        C485   1.482       .  S
O287       Ni295   1.928   1_545  S
O287        C297   1.283       .  A
O288       Ni295   1.930       .  S
O288        C298   1.285       .  A
O289       Ni295   1.906       .  S
O289        C299   1.278       .  A
O290       Ni295   1.904   1_545  S
O290        C300   1.277       .  A
O291       Ni296   1.928       .  S
O291        C300   1.284       .  A
O292       Ni296   1.930   1_565  S
O292        C299   1.284       .  A
O293       Ni296   1.909   1_565  S
O293        C298   1.277       .  A
O294       Ni296   1.907       .  S
O294        C297   1.280       .  A
Ni295      Ni296   2.390   1_565  S
C297        C461   1.476       .  S
C298        C454   1.476       .  S
C299        C450   1.474       .  S
C300        C457   1.470       .  S
C301        C302   1.534       .  S
C301        C555   1.532       .  S
C301        C553   1.533       .  S
C301        C445   1.465       .  S
C302        H309   1.086       .  S
C302        C303   1.370       .  D
C303        C304   1.534       .  S
C303        C458   1.480       .  S
C304        C556   1.537       .  S
C304        C306   1.532       .  S
C304        H558   1.112       .  S
C305        H311   1.086       .  S
C306        C553   1.362       .  D
C306        C477   1.434       .  S
C307        H312   1.086       .  S
C307        C308   1.368       .  D
C308        C462   1.479       .  S
C313        C562   1.533       .  S
C313        C319   1.528       .  S
C313        C317   1.533       .  S
C313        C441   1.467       .  S
C314        H321   1.085       .  S
C314        C315   1.372       .  D
C315        C449   1.488       .  S
C316        C563   1.539       .  S
C316        C320   1.549       .  S
C316        C566   1.539       .  S
C316        H322   1.110       .  S
C317        H323   1.086       .  S
C317        C566   1.364       .  D
C318        C472   1.439       .  S
C319        H324   1.087       .  S
C319        C320   1.362       .  D
C320        C453   1.482       .  S
O325       Ni333   1.908       .  S
O325        C335   1.277       .  A
O326       Ni333   1.904       .  S
O326        C336   1.279   1_455  A
O327       Ni333   1.918       .  S
O327        C337   1.281   1_455  A
O328       Ni333   1.914       .  S
O328        C338   1.282       .  A
O329       Ni334   1.915       .  S
O329        C338   1.279       .  A
O330       Ni334   1.915       .  S
O330        C337   1.281   1_455  A
O331       Ni334   1.930       .  S
O331        C336   1.283   1_455  A
O332       Ni334   1.933       .  S
O332        C335   1.286       .  A
Ni333      Ni334   2.390       .  S
C335        C437   1.477       .  S
C336        C430   1.477       .  S
C337        C425   1.474       .  S
C338        C434   1.472       .  S
C339        C340   1.527       .  S
C339        C593   1.530       .  S
C339        C591   1.534       .  S
C339        C473   1.462       .  S
C340        H347   1.087       .  S
C340        C341   1.360       .  D
C341        C590   1.543       .  S
C341        C433   1.473       .  S
C342        C346   1.534       .  S
C342        H348   1.110       .  S
C343        H349   1.086       .  S
C344        C590   1.534       .  S
C344        C591   1.364       .  D
C344        C421   1.436       .  S
C345        H350   1.086       .  S
C345        C346   1.373       .  D
C346        C438   1.485       .  S
C351        C600   1.532       .  S
C351        C357   1.530       .  S
C351        C355   1.534       .  S
C351        C448   1.465       .  S
C352        H359   1.085       .  S
C352        C353   1.369       .  D
C353        C426   1.482       .  S
C354        C601   1.542       .  S
C354        C358   1.541       .  S
C354        C604   1.535       .  S
C354        H360   1.111       .  S
C355        H361   1.087       .  S
C355        C604   1.363       .  D
C356        C417   1.438       .  S
C357        H362   1.087       .  S
C357        C358   1.364       .  D
C358        C429   1.477       .  S
O363       Ni371   1.909   1_655  S
O363        C373   1.278       .  A
O364       Ni371   1.909       .  S
O364        C374   1.278       .  A
O365       Ni371   1.924       .  S
O365        C375   1.282       .  A
O366       Ni371   1.923   1_655  S
O366        C376   1.282       .  A
O367       Ni372   1.914   1_655  S
O367        C376   1.281       .  A
O368       Ni372   1.916       .  S
O368        C375   1.281       .  A
O369       Ni372   1.928       .  S
O369        C374   1.284       .  A
O370       Ni372   1.927   1_655  S
O370        C373   1.284       .  A
Ni371      Ni372   2.390       .  S
C373        C405   1.474       .  S
C374        C409   1.474       .  S
C375        C413   1.477       .  S
C376        C402   1.476       .  S
C377        C626   1.535       .  S
C377        C383   1.534       .  S
C377        C381   1.530       .  S
C377        C465   1.469       .  S
C378        H385   1.086       .  S
C378        C379   1.369       .  D
C379        C414   1.485       .  S
C380        C627   1.539       .  S
C380        C384   1.537       .  S
C380        C630   1.534       .  S
C380        H386   1.112       .  S
C381        H387   1.087       .  S
C381        C630   1.360       .  D
C382        C424   1.446       .  S
C383        H388   1.086       .  S
C383        C384   1.371       .  D
C384        C410   1.484       .  S
C389        C395   1.536       .  S
C389        C393   1.535       .  S
C389        C444   1.473       .  S
C390        C637   1.536       .  S
C390        H397   1.086       .  S
C390        C391   1.369       .  D
C391        C640   1.536       .  S
C391        C401   1.480       .  S
C392        C396   1.535       .  S
C392        H398   1.112       .  S
C393        H399   1.086       .  S
C394        C640   1.533       .  S
C394        C641   1.363       .  D
C394        C420   1.441       .  S
C395        H400   1.086       .  S
C395        C396   1.371       .  D
C396        C406   1.483       .  S
C401        H403   1.086       .  S
C401        C402   1.345       .  D
C402        H404   1.086       .  S
C405        H407   1.086       .  S
C405        C406   1.342       .  D
C406        H408   1.086       .  S
C409        H411   1.086       .  S
C409        C410   1.343       .  D
C410        H412   1.086       .  S
C413        H415   1.086       .  S
C413        C414   1.348       .  D
C414        H416   1.086       .  S
C417        C418   1.203       .  T
C419        C420   1.206       .  T
C419        C666   1.412       .  S
C421        C422   1.202       .  T
C422        C423   1.407       .  S
C423        C672   1.203       .  T
C425        H427   1.085       .  S
C425        C426   1.345       .  D
C426        H428   1.086       .  S
C429        H431   1.087       .  S
C429        C430   1.344       .  D
C430        H432   1.086       .  S
C433        H435   1.087       .  S
C433        C434   1.339       .  D
C434        H436   1.086       .  S
C437        H439   1.086       .  S
C437        C438   1.340       .  D
C438        H440   1.086       .  S
C441        C690   1.205       .  T
C442        C443   1.417       .  S
C443        C444   1.209       .  T
C445        C446   1.204       .  T
C446        C447   1.409       .  S
C447        C448   1.204       .  T
C449        H451   1.086       .  S
C449        C450   1.343       .  D
C450        H452   1.084       .  S
C453        H455   1.087       .  S
C453        C454   1.338       .  D
C454        H456   1.085       .  S
C457        H459   1.086       .  S
C457        C458   1.339       .  D
C458        H460   1.086       .  S
C461        H463   1.086       .  S
C461        C462   1.346       .  D
C462        H464   1.086       .  S
C465        C466   1.206       .  T
C466        C467   1.413       .  S
C467        C468   1.206       .  T
C469        C470   1.209       .  T
C470        C719   1.417       .  S
C471        C472   1.204       .  T
C473        C474   1.203       .  T
C474        C723   1.407       .  S
C475        C476   1.210       .  T
C477        C478   1.201       .  T
C478        C727   1.405       .  S
C479        C480   1.210       .  T
C481        H483   1.086       .  S
C481        C482   1.341       .  D
C482        H484   1.086       .  S
C485        H487   1.087       .  S
C485        C486   1.339       .  D
C486        H488   1.085       .  S
C489        H491   1.086       .  S
C489        C490   1.347       .  D
C490        H492   1.086       .  S
C493        H495   1.086       .  S
C493        C494   1.341       .  D
C494        H496   1.086       .  S
O497       Ni505   1.935       .  S
O497        C507   1.287       .  A
O498       Ni505   1.937   1_545  S
O498        C508   1.285       .  A
O499       Ni505   1.894   1_545  S
O499        C509   1.274       .  A
O500       Ni505   1.897       .  S
O500        C510   1.275       .  A
O501       Ni506   1.940       .  S
O501        C510   1.287       .  A
O502       Ni506   1.936   1_545  S
O502        C509   1.286       .  A
O503       Ni506   1.900   1_545  S
O503        C508   1.278       .  A
O504       Ni506   1.901       .  S
O504        C507   1.275       .  A
Ni505      Ni506   2.390       .  S
C507        C734   1.474       .  S
C508        C737   1.481       .  S
C509        C741   1.467       .  S
C510        C730   1.473       .  S
C511        C512   1.532       .  S
C511        C724   1.463       .  S
C512        H519   1.085       .  S
C512        C513   1.371       .  D
C513        C742   1.483       .  S
C514        C518   1.540   1_554  S
C514        H520   1.112   1_554  S
C515        H521   1.087       .  S
C516        C728   1.434       .  S
C517        H522   1.085       .  S
C517        C518   1.369       .  D
C518        C738   1.482       .  S
C523        C524   1.535       .  S
C523        C716   1.474       .  S
C524        H531   1.085       .  S
C524        C525   1.374       .  D
C525        C729   1.487       .  S
C526        C530   1.548       .  S
C526        H532   1.110       .  S
C527        H533   1.086       .  S
C528        C717   1.447       .  S
C529        H534   1.087       .  S
C529        C530   1.360       .  D
C530        C733   1.481       .  S
O535       Ni543   1.918   1_545  S
O535        C545   1.281       .  A
O536       Ni543   1.919       .  S
O536        C546   1.281       .  A
O537       Ni543   1.912       .  S
O537        C547   1.279       .  A
O538       Ni543   1.912   1_545  S
O538        C548   1.279       .  A
O539       Ni544   1.925   1_545  S
O539        C548   1.284       .  A
O540       Ni544   1.925       .  S
O540        C547   1.283       .  A
O541       Ni544   1.917       .  S
O541        C546   1.281       .  A
O542       Ni544   1.916   1_545  S
O542        C545   1.281       .  A
Ni543      Ni544   2.390       .  S
C545        C709   1.474       .  S
C546        C702   1.475       .  S
C547        C698   1.474       .  S
C548        C705   1.475       .  S
C549        C550   1.535       .  S
C549        C693   1.472       .  S
C550        H557   1.085       .  S
C550        C551   1.371       .  D
C551        C552   1.536       .  S
C551        C706   1.484       .  S
C552        C554   1.531       .  S
C553        H559   1.087       .  S
C554        C725   1.436       .  S
C555        H560   1.086       .  S
C555        C556   1.368       .  D
C556        C710   1.482       .  S
C561        C567   1.533   1_554  S
C561        C565   1.536       .  S
C561        C689   1.471       .  S
C562        H569   1.086       .  S
C562        C563   1.370       .  D
C563        C697   1.483       .  S
C564        C568   1.539       .  S
C564        H570   1.112       .  S
C565        H571   1.086       .  S
C566        C720   1.446       .  S
C567        H572   1.086       .  S
C567        C568   1.368       .  D
C568        C701   1.482       .  S
O573       Ni581   1.898       .  S
O573        C583   1.276       .  A
O574       Ni581   1.898       .  S
O574        C584   1.275   1_455  A
O575       Ni581   1.928       .  S
O575        C585   1.283   1_455  A
O576       Ni581   1.929       .  S
O576        C586   1.285       .  A
O577       Ni582   1.907       .  S
O577        C586   1.277       .  A
O578       Ni582   1.906   1_655  S
O578        C585   1.279       .  A
O579       Ni582   1.934   1_655  S
O579        C584   1.286       .  A
O580       Ni582   1.936       .  S
O580        C583   1.285       .  A
Ni581      Ni582   2.391       .  S
C583        C685   1.471       .  S
C584        C678   1.470       .  S
C585        C673   1.476       .  S
C586        C682   1.475       .  S
C587        C588   1.529   1_554  S
C587        C721   1.468       .  S
C588        H595   1.087       .  S
C588        C589   1.362       .  D
C589        C681   1.482       .  S
C590        C594   1.539       .  S
C590        H596   1.111       .  S
C591        H597   1.086       .  S
C592        C669   1.445       .  S
C593        H598   1.085       .  S
C593        C594   1.372       .  D
C594        C686   1.487       .  S
C599        C605   1.534   1_554  S
C599        C603   1.537       .  S
C599        C696   1.471       .  S
C600        H607   1.086       .  S
C600        C601   1.368       .  D
C601        C674   1.481       .  S
C602        C606   1.533   1_554  S
C602        H608   1.112       .  S
C603        H609   1.086       .  S
C604        C665   1.441       .  S
C605        H610   1.086       .  S
C605        C606   1.371       .  D
C606        C677   1.483       .  S
O611       Ni619   1.918   1_655  S
O611        C621   1.280       .  A
O612       Ni619   1.919       .  S
O612        C622   1.281       .  A
O613       Ni619   1.917       .  S
O613        C623   1.280       .  A
O614       Ni619   1.916   1_655  S
O614        C624   1.280       .  A
O615       Ni620   1.922   1_655  S
O615        C624   1.283       .  A
O616       Ni620   1.924       .  S
O616        C623   1.283       .  A
O617       Ni620   1.917       .  S
O617        C622   1.281       .  A
O618       Ni620   1.915   1_655  S
O618        C621   1.281       .  A
Ni619      Ni620   2.390       .  S
C621        C653   1.473       .  S
C622        C657   1.475       .  S
C623        C661   1.477       .  S
C624        C650   1.476       .  S
C625        C631   1.533       .  S
C625        C629   1.534       .  S
C625        C713   1.474       .  S
C626        H633   1.086       .  S
C626        C627   1.371       .  D
C627        C662   1.486       .  S
C628        C632   1.539       .  S
C628        H634   1.112       .  S
C629        H635   1.086       .  S
C630        C672   1.436       .  S
C631        H636   1.086       .  S
C631        C632   1.369       .  D
C632        C658   1.484       .  S
C637        C643   1.532       .  S
C637        C641   1.534       .  S
C637        C692   1.467       .  S
C638        H645   1.086       .  S
C638        C639   1.370       .  D
C639        C649   1.484       .  S
C640        C644   1.536       .  S
C640        H646   1.112       .  S
C641        H647   1.087       .  S
C642        C668   1.444   1_556  S
C643        H648   1.086       .  S
C643        C644   1.368       .  D
C644        C654   1.479       .  S
C649        H651   1.086       .  S
C649        C650   1.344       .  D
C650        H652   1.086       .  S
C653        H655   1.086       .  S
C653        C654   1.344       .  D
C654        H656   1.086       .  S
C657        H659   1.086       .  S
C657        C658   1.345       .  D
C658        H660   1.086       .  S
C661        H663   1.086       .  S
C661        C662   1.345       .  D
C662        H664   1.086       .  S
C665        C666   1.206       .  T
C667        C668   1.207       .  T
C669        C670   1.208       .  T
C670        C671   1.415       .  S
C673        H675   1.086       .  S
C673        C674   1.347       .  D
C674        H676   1.086       .  S
C677        H679   1.086       .  S
C677        C678   1.339       .  D
C678        H680   1.086       .  S
C681        H683   1.087       .  S
C681        C682   1.339       .  D
C682        H684   1.085       .  S
C685        H687   1.085       .  S
C685        C686   1.341       .  D
C686        H688   1.086       .  S
C690        C691   1.411       .  S
C691        C692   1.205       .  T
C693        C694   1.208       .  T
C694        C695   1.415   1_556  S
C695        C696   1.208       .  T
C697        H699   1.086       .  S
C697        C698   1.342       .  D
C698        H700   1.086       .  S
C701        H703   1.086       .  S
C701        C702   1.345       .  D
C702        H704   1.086       .  S
C705        H707   1.085       .  S
C705        C706   1.343       .  D
C706        H708   1.086       .  S
C709        H711   1.086       .  S
C709        C710   1.345       .  D
C710        H712   1.086       .  S
C713        C714   1.209       .  T
C714        C715   1.417       .  S
C715        C716   1.209       .  T
C717        C718   1.209       .  T
C719        C720   1.209       .  T
C721        C722   1.206       .  T
C723        C724   1.203       .  T
C725        C726   1.203       .  T
C727        C728   1.201       .  T
C729        H731   1.086       .  S
C729        C730   1.339       .  D
C730        H732   1.085       .  S
C733        H735   1.087       .  S
C733        C734   1.336       .  D
C734        H736   1.086       .  S
C737        H739   1.085       .  S
C737        C738   1.349       .  D
C738        H740   1.086       .  S
C741        H743   1.086       .  S
C741        C742   1.338       .  D
C742        H744   1.086       .  S
