geometry optimzed in LAMMPS
_audit_creation_date              2020-11-30 
_audit_creation_method            'lammps2cif' 
_symmetry_space_group_name_H-M    'P1' 
_symmetry_Int_Tables_number       1 
_symmetry_cell_setting            triclinic 
loop_ 
_symmetry_equiv_pos_as_xyz 
  x,y,z 
_cell_length_a                    48.86380435 
_cell_length_b                    47.70027557207668 
_cell_length_c                    44.15171771995053 
_cell_angle_alpha                 89.93260752042772 
_cell_angle_beta                  90.3982760335123 
_cell_angle_gamma                 90.02771884239436 
loop_ 
_atom_site_label 
_atom_site_type_symbol 
_atom_site_fract_x 
_atom_site_fract_y 
_atom_site_fract_z 
_atom_site_charge 
C1          C  0.67680235  0.67977849  0.24913498     0.80000
N2          N  0.68680040  0.68991359  0.22265310    -0.78300
C3          C  0.70628148  0.71025325  0.22260726     0.82500
N4          N  0.71581724  0.72039050  0.24942958    -0.78200
C5          C  0.70619018  0.71031815  0.27611912     0.82600
N6          N  0.68666245  0.69006414  0.27573127    -0.79900
C7          C  0.80914833  0.81394369  0.50030996     0.80000
N8          N  0.79949580  0.80353114  0.47363701    -0.78300
C9          C  0.77944120  0.78375175  0.47320405     0.82500
N10         N  0.76920205  0.77427742  0.49985356    -0.78200
C11         C  0.77857276  0.78452394  0.02668687     0.82600
N12         N  0.79848047  0.80440527  0.02671648    -0.79900
C13         C  0.68036264  0.31480005  0.24886995     0.80000
N14         N  0.69155640  0.30590407  0.27546516    -0.78300
C15         C  0.71206614  0.28666906  0.27587160     0.82500
N16         N  0.72123530  0.27610799  0.24924522    -0.78200
C17         C  0.71041291  0.28483758  0.22244303     0.82600
N18         N  0.69002374  0.30425075  0.22240844    -0.79900
C19         C  0.80675814  0.17563302  0.50013222     0.80000
N20         N  0.79822214  0.18712096  0.47353538    -0.78300
C21         C  0.77873809  0.20742594  0.47306569     0.82500
N22         N  0.76806710  0.21645308  0.49967013    -0.78200
C23         C  0.77640112  0.20517483  0.02646614     0.82600
N24         N  0.79568207  0.18469402  0.02648656    -0.79900
C25         C  0.31153712  0.68237886  0.24858676     0.80000
N26         N  0.30263695  0.69394369  0.27484450    -0.78300
C27         C  0.28267354  0.71375477  0.27459577     0.82500
N28         N  0.27169303  0.72207183  0.24772190    -0.78200
C29         C  0.28044845  0.71088340  0.22124327     0.82600
N30         N  0.30031997  0.69096570  0.22188396    -0.79900
C31         C  0.17422139  0.80989442  0.49687296     0.80000
N32         N  0.18493675  0.80073128  0.47041418    -0.78300
C33         C  0.20535985  0.78143521  0.47032986     0.82500
N34         N  0.21491196  0.77110750  0.49709782    -0.78200
C35         C  0.20419545  0.77991662  0.02376886     0.82600
N36         N  0.18398813  0.79943565  0.02341660    -0.79900
O37         O  0.96731210  0.96791205  0.02695250    -0.74600
O38         O  0.02248958  0.02480808  0.02613956    -0.74600
O39         O  0.96715805  0.02462826  0.02801393    -0.74700
O40         O  0.02279821  0.96829067  0.02490225    -0.74700
O41         O  0.02085239  0.96868540  0.47446514    -0.74700
O42         O  0.96624593  0.02589943  0.47752535    -0.74700
O43         O  0.02142561  0.02524969  0.47567776    -0.74600
O44         O  0.96556979  0.96896643  0.47651405    -0.74700
Ni45       Ni  0.99498627  0.99635743  0.02830420     1.25400
Ni46       Ni  0.99340527  0.99722668  0.47425462     1.25400
C47         C  0.95731750  0.95900834  0.50184822     0.87600
C48         C  0.03122660  0.03426554  0.50083228     0.87500
C49         C  0.95775919  0.03478427  0.00316996     0.87500
C50         C  0.03112879  0.95932533  0.99920286     0.87700
O51         O  0.46555379  0.52407686  0.27612963    -0.74600
O52         O  0.52138409  0.46751301  0.27548762    -0.74600
O53         O  0.52098815  0.52433447  0.27548797    -0.74700
O54         O  0.46600408  0.46720279  0.27609419    -0.74700
O55         O  0.46488995  0.46770545  0.22558126    -0.74700
O56         O  0.52038951  0.52420236  0.22502035    -0.74700
O57         O  0.52045611  0.46746281  0.22503502    -0.74600
O58         O  0.46492365  0.52418807  0.22565741    -0.74700
Ni59       Ni  0.49350805  0.49578513  0.27760338     1.25400
Ni60       Ni  0.49265793  0.49588542  0.22354214     1.25400
C61         C  0.45594003  0.53340051  0.25096780     0.87600
C62         C  0.53017522  0.45813299  0.25014859     0.87500
C63         C  0.52984869  0.53364781  0.25014443     0.87500
C64         C  0.45626829  0.45819100  0.25090988     0.87700
C65         C  0.18058095  0.17746389  0.50121739     0.80000
N66         N  0.18999805  0.18816747  0.02776779    -0.78300
C67         C  0.20948317  0.20843026  0.02809181     0.82500
N68         N  0.21966277  0.21802199  0.50149309    -0.78200
C69         C  0.21067056  0.20728430  0.47471065     0.82600
N70         N  0.19109384  0.18706715  0.47478969    -0.79900
C71         C  0.31093255  0.31113345  0.25129281     0.80000
N72         N  0.29858215  0.30299373  0.22510348    -0.78300
C73         C  0.27898000  0.28281267  0.22529097     0.82500
N74         N  0.27157111  0.27098446  0.25199732    -0.78200
C75         C  0.28347414  0.27921414  0.27840103     0.82600
N76         N  0.30325416  0.29919987  0.27783925    -0.79900
C77         C  0.26870465  0.27323579  0.41740674    -0.18000
C78         C  0.27923502  0.28300732  0.39000126    -0.20200
C79         C  0.27214016  0.26983126  0.36265318     0.20500
C80         C  0.25445739  0.24644759  0.36290238    -0.03100
C81         C  0.24385337  0.23658261  0.39055969    -0.06200
C82         C  0.25095092  0.25012587  0.41790767     0.20700
C83         C  0.22599444  0.21334394  0.39080178     0.18900
C84         C  0.21911865  0.19998975  0.36347623    -0.17600
C85         C  0.22960151  0.20980607  0.33604898    -0.19900
C86         C  0.24711879  0.23311486  0.33550891     0.20400
C87         C  0.25709530  0.24357546  0.30804078    -0.32900
C88         C  0.27436200  0.26719220  0.30755527     0.01100
C89         C  0.28209338  0.27993557  0.33504200    -0.24200
C90         C  0.24009075  0.24042474  0.44526268    -0.28800
C91         C  0.22212957  0.21737423  0.44571839     0.06800
C92         C  0.21522767  0.20392463  0.41833082    -0.27500
H93         H  0.27436595  0.28385112  0.43822494     0.11500
H94         H  0.29277927  0.30098388  0.39017132     0.12600
H95         H  0.20550707  0.18206500  0.36330167     0.11700
H96         H  0.22383600  0.19927678  0.31521257     0.10900
H97         H  0.25116875  0.23345107  0.28701725     0.16300
H98         H  0.29534834  0.29815087  0.33497085     0.12200
H99         H  0.24554117  0.25099351  0.46618057     0.15100
H100        H  0.20151373  0.18606847  0.41836211     0.14900
C101        C  0.25913045  0.29597254  0.11629221    -0.18000
C102        C  0.24995920  0.28530903  0.08852030    -0.20200
C103        C  0.23927077  0.25805078  0.08664354     0.20500
C104        C  0.23740426  0.24151510  0.11308899    -0.03100
C105        C  0.24663605  0.25226465  0.14108115    -0.06200
C106        C  0.25778439  0.27952774  0.14262284     0.20700
C107        C  0.24501080  0.23558990  0.16743252     0.18900
C108        C  0.23407885  0.20844425  0.16563946    -0.17600
C109        C  0.22490921  0.19779614  0.13790719    -0.19900
C110        C  0.22650655  0.21415119  0.11155111     0.20400
C111        C  0.21742890  0.20357693  0.08368615    -0.32900
C112        C  0.21937168  0.21984208  0.05721908     0.01100
C113        C  0.23043377  0.24701654  0.05882053    -0.24200
C114        C  0.26781985  0.28965884  0.17035222    -0.28800
C115        C  0.26669376  0.27293168  0.19657845     0.06800
C116        C  0.25480776  0.24612781  0.19502102    -0.27500
H117        H  0.26750444  0.31699305  0.11712934     0.11500
H118        H  0.25137707  0.29833346  0.06846276     0.12600
H119        H  0.23277062  0.19537088  0.18567109     0.11700
H120        H  0.21664053  0.17673244  0.13705310     0.10900
H121        H  0.20909917  0.18253092  0.08255318     0.16300
H122        H  0.23179609  0.25971677  0.03850117     0.12200
H123        H  0.27672045  0.31045773  0.17145842     0.15100
H124        H  0.25394243  0.23306447  0.21510749     0.14900
C125        C  0.37602614  0.41311928  0.20324624    -0.18000
C126        C  0.35576228  0.39241735  0.20319702    -0.20200
C127        C  0.35445480  0.37275810  0.22680822     0.20500
C128        C  0.37366485  0.37402289  0.25079367    -0.03100
C129        C  0.39406648  0.39492984  0.25087570    -0.06200
C130        C  0.39529533  0.41448800  0.22690941     0.20700
C131        C  0.41319720  0.39626720  0.27494266     0.18900
C132        C  0.41195685  0.37654783  0.29849073    -0.17600
C133        C  0.39176617  0.35578018  0.29837066    -0.19900
C134        C  0.37245967  0.35445528  0.27474304     0.20400
C135        C  0.35189869  0.33399206  0.27472438    -0.32900
C136        C  0.33265401  0.33264396  0.25094500     0.01100
C137        C  0.33419635  0.35195718  0.22693816    -0.24200
C138        C  0.41579273  0.43503172  0.22702378    -0.28800
C139        C  0.43478308  0.43654465  0.25101386     0.06800
C140        C  0.43326767  0.41725014  0.27499620    -0.27500
H141        H  0.37664104  0.42805942  0.18475255     0.11500
H142        H  0.34110338  0.39177983  0.18468098     0.12600
H143        H  0.42658517  0.37721323  0.31703217     0.11700
H144        H  0.39117713  0.34081490  0.31684172     0.10900
H145        H  0.35099568  0.31898005  0.29315493     0.16300
H146        H  0.31935933  0.35109105  0.20858663     0.12200
H147        H  0.41679289  0.45006756  0.20861665     0.15100
H148        H  0.44800815  0.41828979  0.29343350     0.14900
C149        C  0.11939713  0.11232231  0.44606994    -0.18000
C150        C  0.09834617  0.09246518  0.44597623    -0.20200
C151        C  0.08616251  0.08409702  0.47321754     0.20500
C152        C  0.09528919  0.09581743  0.00083020    -0.03100
C153        C  0.11651856  0.11583191  0.00092277    -0.06200
C154        C  0.12859874  0.12411467  0.47340289     0.20700
C155        C  0.12561280  0.12753820  0.02854316     0.18900
C156        C  0.11343875  0.11918152  0.05578794    -0.17600
C157        C  0.09240568  0.09932857  0.05569842    -0.19900
C158        C  0.08322344  0.08753323  0.02836759     0.20400
C159        C  0.06223656  0.06755114  0.02812577    -0.32900
C160        C  0.05305447  0.05570886  0.50072330     0.01100
C161        C  0.06507774  0.06417839  0.47333357    -0.24200
C162        C  0.14960739  0.14410460  0.47367050    -0.28800
C163        C  0.15876038  0.15594283  0.50111158     0.06800
C164        C  0.14666089  0.14745573  0.02846014    -0.27500
H165        H  0.12847695  0.11847416  0.42474464     0.11500
H166        H  0.09159004  0.08364799  0.42458817     0.12600
H167        H  0.12018801  0.12800643  0.07717561     0.11700
H168        H  0.08332390  0.09318208  0.07702511     0.10900
H169        H  0.05306768  0.06121351  0.04935300     0.16300
H170        H  0.05819398  0.05512850  0.45209399     0.12200
H171        H  0.15875611  0.15045741  0.45244113     0.15100
H172        H  0.15346990  0.15643458  0.04976087     0.14900
C173        C  0.08355638  0.88709459  0.44408417    -0.18000
C174        C  0.10331567  0.86587283  0.44386545    -0.20200
C175        C  0.11830603  0.85952827  0.47023835     0.20500
C176        C  0.11346047  0.87482234  0.99700420    -0.03100
C177        C  0.09358036  0.89622734  0.99719609    -0.06200
C178        C  0.07845821  0.90229323  0.47065248     0.20700
C179        C  0.08867575  0.91135284  0.02405717     0.18900
C180        C  0.10390278  0.90530793  0.05030446    -0.17600
C181        C  0.12356001  0.88407229  0.05011475    -0.19900
C182        C  0.12834628  0.86862397  0.02367919     0.20400
C183        C  0.14780956  0.84713674  0.02348013    -0.32900
C184        C  0.15293751  0.83190779  0.99688595     0.01100
C185        C  0.13808949  0.83822281  0.47030460    -0.24200
C186        C  0.05833245  0.92323539  0.47128066    -0.28800
C187        C  0.05294591  0.93794705  0.99818695     0.06800
C188        C  0.06841164  0.93205670  0.02437832    -0.27500
H189        H  0.07215036  0.89152532  0.42347187     0.11500
H190        H  0.10681785  0.85437790  0.42312639     0.12600
H191        H  0.10045531  0.91684899  0.07102751     0.11700
H192        H  0.13496247  0.87965138  0.07073115     0.10900
H193        H  0.15927313  0.84257018  0.04402581     0.16300
H194        H  0.14183959  0.82653632  0.44972589     0.12200
H195        H  0.04654676  0.92773610  0.45094172     0.15100
H196        H  0.06463337  0.94352271  0.04509811     0.14900
C197        C  0.40170419  0.60584227  0.30389440    -0.18000
C198        C  0.38166959  0.62679816  0.30349302    -0.20200
C199        C  0.36722222  0.63293422  0.27669972     0.20500
C200        C  0.37295195  0.61774979  0.25008956    -0.03100
C201        C  0.39319287  0.59663276  0.25049346    -0.06200
C202        C  0.40766746  0.59068652  0.27752428     0.20700
C203        C  0.39902368  0.58159384  0.22381420     0.18900
C204        C  0.38437972  0.58751533  0.19710572    -0.17600
C205        C  0.36430913  0.60839871  0.19673056    -0.19900
C206        C  0.35855229  0.62372061  0.22302809     0.20400
C207        C  0.33868424  0.64491144  0.22269975    -0.32900
C208        C  0.33282657  0.66021665  0.24910702     0.01100
C209        C  0.34719474  0.65401014  0.27606330    -0.24200
C210        C  0.42794352  0.56983444  0.27764115    -0.28800
C211        C  0.43415521  0.55501972  0.25100581     0.06800
C212        C  0.41948779  0.56099639  0.22421774    -0.27500
H213        H  0.41261947  0.60155359  0.32485546     0.11500
H214        H  0.37751111  0.63824169  0.32411790     0.12600
H215        H  0.38853294  0.57607533  0.17647659     0.11700
H216        H  0.35334998  0.61264684  0.17578646     0.10900
H217        H  0.32766923  0.64933690  0.20182962     0.16300
H218        H  0.34292545  0.66564077  0.29655284     0.12200
H219        H  0.43913283  0.56540507  0.29839722     0.15100
H220        H  0.42393160  0.54956087  0.20364160     0.14900
C221        C  0.20769598  0.78275151  0.13564638    -0.18000
C222        C  0.21837488  0.77316308  0.16322918    -0.20200
C223        C  0.23769396  0.75140261  0.16387288     0.20500
C224        C  0.24618135  0.73903144  0.13649576    -0.03100
C225        C  0.23542129  0.74873352  0.10865639    -0.06200
C226        C  0.21616939  0.77076033  0.10826499     0.20700
C227        C  0.24409945  0.73655269  0.08124446     0.18900
C228        C  0.26318503  0.71457900  0.08192351    -0.17600
C229        C  0.27382338  0.70494699  0.10952194    -0.19900
C230        C  0.26557561  0.71712740  0.13689376     0.20400
C231        C  0.27653160  0.70792438  0.16460801    -0.32900
C232        C  0.26839432  0.72031715  0.19203246     0.01100
C233        C  0.24880053  0.74196493  0.19140716    -0.24200
C234        C  0.20589795  0.78058144  0.08051343    -0.28800
C235        C  0.21469946  0.76883154  0.05300445     0.06800
C236        C  0.23372337  0.74668057  0.05362541    -0.27500
H237        H  0.19289566  0.79967479  0.13572673     0.11500
H238        H  0.21162127  0.78285389  0.18405201     0.12600
H239        H  0.26999777  0.70494489  0.06109730     0.11700
H240        H  0.28864890  0.68804806  0.10943748     0.10900
H241        H  0.29151574  0.69116642  0.16473626     0.16300
H242        H  0.24228990  0.75169018  0.21232073     0.12200
H243        H  0.19124984  0.79764929  0.08040747     0.15100
H244        H  0.24055769  0.73733636  0.03264043     0.14900
C245        C  0.20030589  0.77317854  0.35897681    -0.18000
C246        C  0.21124881  0.76394177  0.33158063    -0.20200
C247        C  0.23647061  0.74992339  0.33105730     0.20500
C248        C  0.25094918  0.74532298  0.35837625    -0.03100
C249        C  0.23990613  0.75461032  0.38603427    -0.06200
C250        C  0.21443335  0.76850970  0.38630186     0.20700
C251        C  0.25422335  0.74973753  0.41341037     0.18900
C252        C  0.27962047  0.73605177  0.41282886    -0.17600
C253        C  0.29057907  0.72682862  0.38541238    -0.19900
C254        C  0.27629019  0.73116326  0.35811583     0.20400
C255        C  0.28675063  0.72125754  0.33063695    -0.32900
C256        C  0.27224335  0.72541776  0.30334832     0.01100
C257        C  0.24727519  0.74009359  0.30375882    -0.24200
C258        C  0.20339256  0.77732548  0.41389033    -0.28800
C259        C  0.21734393  0.77220354  0.44133284     0.06800
C260        C  0.24280557  0.75846813  0.44086769    -0.27500
H261        H  0.18074725  0.78381644  0.35882319     0.11500
H262        H  0.19986584  0.76762633  0.31077434     0.12600
H263        H  0.29095265  0.73227732  0.43364788     0.11700
H264        H  0.31009720  0.71611462  0.38557649     0.10900
H265        H  0.30608999  0.71017697  0.33055761     0.16300
H266        H  0.23587093  0.74337174  0.28288601     0.12200
H267        H  0.18375838  0.78785289  0.41398360     0.15100
H268        H  0.25384988  0.75467455  0.46187335     0.14900
C269        C  0.90909471  0.11295714  0.45359043    -0.18000
C270        C  0.88752120  0.13217801  0.45280039    -0.20200
C271        C  0.86908358  0.13380000  0.47694824     0.20500
C272        C  0.87265722  0.11623356  0.00240661    -0.03100
C273        C  0.89445567  0.09687920  0.00324714    -0.06200
C274        C  0.91254827  0.09504560  0.47855632     0.20700
C275        C  0.89793810  0.07913516  0.02860513     0.18900
C276        C  0.87972580  0.08105216  0.05293829    -0.17600
C277        C  0.85809546  0.10023512  0.05210727    -0.19900
C278        C  0.85437475  0.11786051  0.02693385     0.20400
C279        C  0.83272064  0.13711299  0.02590570    -0.32900
C280        C  0.82897662  0.15463975  0.00056448     0.01100
C281        C  0.84718002  0.15272858  0.47611782    -0.24200
C282        C  0.93347546  0.07500560  0.47899731    -0.28800
C283        C  0.93670627  0.05689882  0.00389400     0.06800
C284        C  0.91924132  0.05944748  0.02889425    -0.27500
H285        H  0.92292034  0.11191399  0.43456545     0.11500
H286        H  0.88515581  0.14567580  0.43317638     0.12600
H287        H  0.88208861  0.06755305  0.07256067     0.11700
H288        H  0.84423735  0.10123577  0.07109895     0.10900
H289        H  0.81874500  0.13838979  0.04479630     0.16300
H290        H  0.84460729  0.16635410  0.45661668     0.12200
H291        H  0.94714609  0.07336797  0.45985556     0.15100
H292        H  0.92168535  0.04550436  0.04815094     0.14900
C293        C  0.59661172  0.39940708  0.19458959    -0.18000
C294        C  0.61754458  0.37939028  0.19436385    -0.20200
C295        C  0.62687239  0.36728538  0.22153692     0.20500
C296        C  0.61487982  0.37534535  0.24917301    -0.03100
C297        C  0.59373534  0.39555177  0.24938605    -0.06200
C298        C  0.58461288  0.40767081  0.22195254     0.20700
C299        C  0.58184970  0.40371211  0.27704463     0.18900
C300        C  0.59103000  0.39145363  0.30419555    -0.17600
C301        C  0.61195778  0.37144312  0.30396714    -0.19900
C302        C  0.62409471  0.36334754  0.27662288     0.20400
C303        C  0.64536674  0.34360178  0.27628729    -0.32900
C304        C  0.65764297  0.33553855  0.24886272     0.01100
C305        C  0.64808338  0.34740845  0.22153190    -0.24200
C306        C  0.56376321  0.42790868  0.22237146    -0.28800
C307        C  0.55190645  0.43636190  0.24987016     0.06800
C308        C  0.56108056  0.42405676  0.27712517    -0.27500
H309        H  0.58984936  0.40850073  0.17329447     0.11500
H310        H  0.62650115  0.37345017  0.17295880     0.12600
H311        H  0.58209551  0.39741583  0.32560623     0.11700
H312        H  0.61874373  0.36237178  0.32526467     0.10900
H313        H  0.65234414  0.33452290  0.29750660     0.16300
H314        H  0.65728013  0.34141394  0.20025460     0.12200
H315        H  0.55692412  0.43723703  0.20122293     0.15100
H316        H  0.55209184  0.43029539  0.29843282     0.14900
C317        C  0.75546675  0.20885490  0.16495658    -0.18000
C318        C  0.76430109  0.19748080  0.13749133    -0.20200
C319        C  0.76062852  0.21234594  0.11029282     0.20500
C320        C  0.74789321  0.23888615  0.11079107    -0.03100
C321        C  0.73896233  0.25033400  0.13848577    -0.06600
C322        C  0.74278499  0.23525008  0.16570078     0.20700
C323        C  0.72615300  0.27684271  0.13889613     0.18900
C324        C  0.72272183  0.29182519  0.11177118    -0.17600
C325        C  0.73162610  0.28051059  0.08437193    -0.19900
C326        C  0.74407584  0.25403857  0.08362277     0.20400
C327        C  0.75290836  0.24257745  0.05618863    -0.32900
C328        C  0.76585424  0.21627045  0.05544908     0.01100
C329        C  0.76959484  0.20123013  0.08264624    -0.24200
C330        C  0.73372705  0.24678629  0.19310009    -0.28800
C331        C  0.72053016  0.27302873  0.19359928     0.06800
C332        C  0.71687880  0.28791609  0.16637183    -0.27500
H333        H  0.75853057  0.19695979  0.18564771     0.11500
H334        H  0.77402310  0.17709051  0.13752162     0.12600
H335        H  0.71307841  0.31225026  0.11173867     0.11700
H336        H  0.72870136  0.29248138  0.06370753     0.10900
H337        H  0.75013570  0.25446788  0.03544144     0.16300
H338        H  0.77949373  0.18091639  0.08233196     0.12200
H339        H  0.73654851  0.23510212  0.21397896     0.15100
H340        H  0.70698829  0.30823551  0.16657738     0.14900
C341        C  0.78061256  0.21030302  0.36106980    -0.18000
C342        C  0.77167306  0.22169037  0.33353345    -0.20200
C343        C  0.75294624  0.24398787  0.33306920     0.20500
C344        C  0.74347196  0.25522998  0.36061082    -0.03100
C345        C  0.75251585  0.24374282  0.38840888    -0.06200
C346        C  0.77102751  0.22105269  0.38859752     0.20700
C347        C  0.74278133  0.25473972  0.41595628     0.18900
C348        C  0.72443517  0.27737638  0.41548911    -0.17600
C349        C  0.71545646  0.28873828  0.38793805    -0.19900
C350        C  0.72464965  0.27765383  0.36039401     0.20400
C351        C  0.71495649  0.28823852  0.33267275    -0.32900
C352        C  0.72373304  0.27665396  0.30506809     0.01100
C353        C  0.74314284  0.25483670  0.30553540    -0.24200
C354        C  0.77950116  0.20938183  0.41626981    -0.28800
C355        C  0.76972690  0.22002454  0.44389541     0.06800
C356        C  0.75140560  0.24281679  0.44347617    -0.27500
H357        H  0.79490017  0.19292793  0.36082309     0.11500
H358        H  0.77919178  0.21286570  0.31258754     0.12600
H359        H  0.71685667  0.28614727  0.43643267     0.11700
H360        H  0.70107918  0.30603592  0.38817932     0.10900
H361        H  0.70021282  0.30521831  0.33267734     0.16300
H362        H  0.75023196  0.24581191  0.28449036     0.12200
H363        H  0.79362324  0.19185684  0.41620677     0.15100
H364        H  0.74379664  0.25132499  0.46454518     0.14900
C365        C  0.88611100  0.90450742  0.05513882    -0.18000
C366        C  0.86527996  0.88436751  0.05483212    -0.20200
C367        C  0.85889739  0.86973597  0.02813098     0.20500
C368        C  0.87369984  0.87537161  0.50150325    -0.03100
C369        C  0.89471191  0.89569993  0.50180726    -0.06200
C370        C  0.90090804  0.91037301  0.02873899     0.20700
C371        C  0.90943316  0.90140837  0.47511813     0.18900
C372        C  0.90331701  0.88651690  0.44853380    -0.17600
C373        C  0.88252075  0.86637120  0.44823931    -0.19900
C374        C  0.86748960  0.86077346  0.47453162     0.20400
C375        C  0.84633217  0.84088877  0.47426999    -0.32900
C376        C  0.83134393  0.83518930  0.50068595     0.01100
C377        C  0.83790899  0.84965581  0.02757696    -0.24200
C378        C  0.92160443  0.93079305  0.02872489    -0.28800
C379        C  0.93599207  0.93696404  0.50203856     0.06800
C380        C  0.92987105  0.92203689  0.47538830    -0.27500
H381        H  0.89057712  0.91558264  0.07600839     0.11500
H382        H  0.85409463  0.88028864  0.07548592     0.12600
H383        H  0.91452745  0.89056475  0.42789207     0.11700
H384        H  0.87809942  0.85525530  0.42738418     0.10900
H385        H  0.84168049  0.82973074  0.45348709     0.16300
H386        H  0.82653895  0.84547806  0.04809351     0.12200
H387        H  0.92619298  0.94218121  0.04938204     0.15100
H388        H  0.94106908  0.92642506  0.45480325     0.14900
C389        C  0.61630755  0.61330375  0.19450828    -0.18000
C390        C  0.59565620  0.59298983  0.19466108    -0.20200
C391        C  0.58376668  0.58448591  0.22201996     0.20500
C392        C  0.59276677  0.59653750  0.24950466    -0.03100
C393        C  0.61360028  0.61701600  0.24935052    -0.06200
C394        C  0.62540537  0.62544332  0.22171723     0.20700
C395        C  0.62259544  0.62902991  0.27684624     0.18900
C396        C  0.61070370  0.62054843  0.30420528    -0.17600
C397        C  0.59006245  0.60025663  0.30435955    -0.19900
C398        C  0.58099163  0.58811799  0.27715883     0.20400
C399        C  0.56040760  0.56766210  0.27716831    -0.32900
C400        C  0.55135516  0.55548115  0.24988129     0.01100
C401        C  0.56310269  0.56409524  0.22237927    -0.24200
C402        C  0.64606640  0.64586985  0.22176560    -0.28800
C403        C  0.65515814  0.65798446  0.24911479     0.06800
C404        C  0.64329098  0.64934951  0.27655416    -0.27500
H405        H  0.62516399  0.61952355  0.17309941     0.11500
H406        H  0.58898950  0.58391764  0.17336379     0.12600
H407        H  0.61737820  0.62960573  0.32550287     0.11700
H408        H  0.58121231  0.59403205  0.32577346     0.10900
H409        H  0.55145560  0.56124046  0.29847182     0.16300
H410        H  0.55631139  0.55481893  0.20122253     0.12200
H411        H  0.65504304  0.65228262  0.20047653     0.15100
H412        H  0.65002312  0.65852064  0.29777982     0.14900
C413        C  0.72148197  0.71698698  0.41563358    -0.18000
C414        C  0.71120035  0.70676564  0.38812801    -0.20200
C415        C  0.71910812  0.71902201  0.36061982     0.20500
C416        C  0.73758540  0.74175805  0.36082874    -0.03100
C417        C  0.74797622  0.75205282  0.38858535    -0.06200
C418        C  0.73985397  0.73961805  0.41610450     0.20700
C419        C  0.76647162  0.77477744  0.38876864     0.18900
C420        C  0.77435479  0.78704632  0.36127018    -0.17600
C421        C  0.76405244  0.77685354  0.33378435    -0.19900
C422        C  0.74570339  0.75422528  0.33332096     0.20400
C423        C  0.73536891  0.74387224  0.30582661    -0.32900
C424        C  0.71692283  0.72120405  0.30534634     0.01100
C425        C  0.70888074  0.70892610  0.33293383    -0.24200
C426        C  0.75022006  0.75003284  0.44358929    -0.28800
C427        C  0.76872294  0.77269895  0.44401440     0.06800
C428        C  0.77675377  0.78489187  0.41641069    -0.27500
H429        H  0.71504675  0.70717737  0.43656774     0.11500
H430        H  0.69705107  0.68927946  0.38837045     0.12600
H431        H  0.78850153  0.80452929  0.36101919     0.11700
H432        H  0.77046820  0.78668188  0.31285441     0.10900
H433        H  0.74170039  0.75357733  0.28479215     0.16300
H434        H  0.69474293  0.69141535  0.33293598     0.12200
H435        H  0.74388575  0.74037796  0.46465097     0.15100
H436        H  0.79089116  0.80239819  0.41636963     0.14900
C437        C  0.72845574  0.71232690  0.08451236    -0.18000
C438        C  0.71849620  0.70185692  0.11190562    -0.20200
C439        C  0.72265844  0.71674132  0.13895147     0.20500
C440        C  0.73712349  0.74234416  0.13843456    -0.03100
C441        C  0.74718408  0.75289864  0.11078519    -0.06200
C442        C  0.74275456  0.73782950  0.08370491     0.20700
C443        C  0.76169397  0.77847605  0.11026567     0.18900
C444        C  0.76588524  0.79334250  0.13732114    -0.17600
C445        C  0.75589382  0.78288644  0.16471562    -0.19900
C446        C  0.74155631  0.75740119  0.16552286     0.20400
C447        C  0.73156178  0.74673210  0.19291679    -0.32900
C448        C  0.71696966  0.72129278  0.19361887     0.01100
C449        C  0.71259474  0.70645020  0.16647679    -0.24200
C450        C  0.75278714  0.74845068  0.05632204    -0.28800
C451        C  0.76748601  0.77381653  0.05562036     0.06800
C452        C  0.77183120  0.78870909  0.08273904    -0.27500
H453        H  0.72496270  0.70045074  0.06392530     0.11500
H454        H  0.70751080  0.68213459  0.11193537     0.12600
H455        H  0.77692892  0.81303081  0.13730007     0.11700
H456        H  0.75942122  0.79474286  0.18531058     0.10900
H457        H  0.73494336  0.75841835  0.21366211     0.16300
H458        H  0.70153817  0.68675647  0.16676063     0.12200
H459        H  0.74944708  0.73671870  0.03560020     0.15100
H460        H  0.78299000  0.80834325  0.08244300     0.14900
C461        C  0.67681569  0.67977468  0.74913712     0.80000
N462        N  0.68681556  0.68990669  0.72265483    -0.78300
C463        C  0.70629682  0.71024606  0.72260874     0.82500
N464        N  0.71583326  0.72038400  0.74942990    -0.78200
C465        C  0.70620567  0.71031420  0.77611983     0.82600
N466        N  0.68667523  0.69006227  0.77573322    -0.79900
C467        C  0.80916992  0.81393712  0.00031255     0.80000
N468        N  0.79951594  0.80352753  0.97363898    -0.78300
C469        C  0.77946173  0.78374825  0.97320402     0.82500
N470        N  0.76922243  0.77427215  0.99985307    -0.78200
C471        C  0.77855124  0.78453286  0.52668596     0.82600
N472        N  0.79845753  0.80441528  0.52671439    -0.79900
C473        C  0.68037614  0.31482106  0.74884671     0.80000
N474        N  0.69157068  0.30593331  0.77544453    -0.78300
C475        C  0.71208400  0.28670301  0.77585744     0.82500
N476        N  0.72125516  0.27613669  0.74923421    -0.78200
C477        C  0.71043119  0.28485783  0.72242950     0.82600
N478        N  0.69003910  0.30426771  0.72238836    -0.79900
C479        C  0.80674653  0.17564458  0.00012315     0.80000
N480        N  0.79820353  0.18712804  0.97352608    -0.78300
C481        C  0.77872224  0.20743701  0.97305858     0.82500
N482        N  0.76806219  0.21647283  0.99966560    -0.78200
C483        C  0.77639776  0.20514948  0.52647077     0.82600
N484        N  0.79568267  0.18467262  0.52649419    -0.79900
C485        C  0.31155069  0.68238537  0.74858540     0.80000
N486        N  0.30264003  0.69393739  0.77484518    -0.78300
C487        C  0.28266432  0.71373526  0.77459920     0.82500
N488        N  0.27168217  0.72205282  0.74772639    -0.78200
C489        C  0.28044832  0.71087749  0.72124587     0.82600
N490        N  0.30033198  0.69097244  0.72188355    -0.79900
C491        C  0.17424271  0.80992306  0.99686737     0.80000
N492        N  0.18496487  0.80076400  0.97041071    -0.78300
C493        C  0.20537941  0.78145887  0.97032856     0.82500
N494        N  0.21491643  0.77111682  0.99709640    -0.78200
C495        C  0.20419854  0.77991259  0.52377179     0.82600
N496        N  0.18398274  0.79942150  0.52342130    -0.79900
O497        O  0.96730268  0.96790449  0.52696385    -0.74600
O498        O  0.02248853  0.02479395  0.52614941    -0.74600
O499        O  0.96715799  0.02461914  0.52801659    -0.74700
O500        O  0.02279073  0.96827551  0.52492174    -0.74700
O501        O  0.02085449  0.96870346  0.97444605    -0.74700
O502        O  0.96624361  0.02591534  0.97752319    -0.74700
O503        O  0.02142437  0.02526764  0.97566796    -0.74600
O504        O  0.96557145  0.96898164  0.97650343    -0.74700
Ni505      Ni  0.99498180  0.99634601  0.52831521     1.25400
Ni506      Ni  0.99340486  0.99724387  0.97424414     1.25400
C507        C  0.95732513  0.95901743  0.00183728     0.87600
C508        C  0.03122694  0.03428088  0.00082285     0.87500
C509        C  0.95776127  0.03477178  0.50317028     0.87500
C510        C  0.03112259  0.95930767  0.49922405     0.87700
O511        O  0.46555964  0.52407252  0.77613149    -0.74600
O512        O  0.52139270  0.46751324  0.77547750    -0.74600
O513        O  0.52099745  0.52433097  0.77548469    -0.74700
O514        O  0.46601347  0.46719740  0.77609011    -0.74700
O515        O  0.46489321  0.46770861  0.72557736    -0.74700
O516        O  0.52040096  0.52419873  0.72501691    -0.74700
O517        O  0.52045869  0.46746464  0.72502470    -0.74600
O518        O  0.46493109  0.52419165  0.72565935    -0.74700
Ni519      Ni  0.49351588  0.49578228  0.77759959     1.25400
Ni520      Ni  0.49266312  0.49588746  0.72353828     1.25400
C521        C  0.45594539  0.53339885  0.75097103     0.87600
C522        C  0.53018240  0.45813683  0.75013643     0.87500
C523        C  0.52986613  0.53363708  0.75014146     0.87500
C524        C  0.45627640  0.45818778  0.75090543     0.87700
C525        C  0.18058015  0.17747810  0.00121309     0.80000
N526        N  0.18999442  0.18815766  0.52777198    -0.78300
C527        C  0.20947148  0.20842872  0.52809625     0.82500
N528        N  0.21967772  0.21801978  0.00148889    -0.78200
C529        C  0.21068142  0.20728587  0.97470664     0.82600
N530        N  0.19109701  0.18707670  0.97478528    -0.79900
C531        C  0.31093677  0.31113150  0.75128651     0.80000
N532        N  0.29857393  0.30300093  0.72510046    -0.78300
C533        C  0.27896813  0.28282314  0.72529180     0.82500
N534        N  0.27156864  0.27098922  0.75199870    -0.78200
C535        C  0.28348385  0.27921042  0.77839876     0.82600
N536        N  0.30326681  0.29919280  0.77783320    -0.79900
C537        C  0.26867394  0.27326969  0.91739809    -0.18000
C538        C  0.27920557  0.28304025  0.88999300    -0.20200
C539        C  0.27213919  0.26984126  0.86264910     0.20500
C540        C  0.25448665  0.24643368  0.86290247    -0.03100
C541        C  0.24388152  0.23656957  0.89055955    -0.06200
C542        C  0.25094772  0.25013783  0.91790277     0.20700
C543        C  0.22605070  0.21330818  0.89080575     0.18900
C544        C  0.21920779  0.19992830  0.86348508    -0.17600
C545        C  0.22969149  0.20974389  0.83605781    -0.19900
C546        C  0.24717699  0.23307771  0.83551288     0.20400
C547        C  0.25714801  0.24354175  0.80804358    -0.32900
C548        C  0.27438192  0.26718338  0.80755395     0.01100
C549        C  0.28208883  0.27994745  0.83503737    -0.24200
C550        C  0.24008275  0.24044034  0.94525661    -0.28800
C551        C  0.22214686  0.21736946  0.94571569     0.06800
C552        C  0.21527767  0.20389359  0.91833366    -0.27500
H553        H  0.27431148  0.28390386  0.93821289     0.11500
H554        H  0.29272689  0.30103480  0.89015966     0.12600
H555        H  0.20561937  0.18198485  0.86331395     0.11700
H556        H  0.22394989  0.19919559  0.81522482     0.10900
H557        H  0.25124249  0.23340096  0.78702191     0.16300
H558        H  0.29531852  0.29818207  0.83496224     0.12200
H559        H  0.24550744  0.25102921  0.96617053     0.15100
H560        H  0.20158468  0.18602012  0.91836888     0.14900
C561        C  0.25909367  0.29598881  0.61629686    -0.18000
C562        C  0.24992296  0.28532312  0.58852534    -0.20200
C563        C  0.23923992  0.25806258  0.58664904     0.20500
C564        C  0.23737597  0.24152764  0.61309525    -0.03100
C565        C  0.24660689  0.25227936  0.64108708    -0.06200
C566        C  0.25775219  0.27954379  0.64262790     0.20700
C567        C  0.24498589  0.23560442  0.66743860     0.18900
C568        C  0.23405721  0.20845736  0.66564661    -0.17600
C569        C  0.22488859  0.19780709  0.63791491    -0.19900
C570        C  0.22648367  0.21416146  0.61155812     0.20400
C571        C  0.21741066  0.20358329  0.58369293    -0.32900
C572        C  0.21935292  0.21984662  0.55722438     0.01100
C573        C  0.23040746  0.24702455  0.55882559    -0.24200
C574        C  0.26779136  0.28967523  0.67035618    -0.28800
C575        C  0.26667182  0.27294654  0.69658198     0.06800
C576        C  0.25478585  0.24614253  0.69502571    -0.27500
H577        H  0.26746466  0.31701018  0.61713308     0.11500
H578        H  0.25133846  0.29834746  0.56846738     0.12600
H579        H  0.23275201  0.19538383  0.68567854     0.11700
H580        H  0.21662375  0.17674194  0.63706154     0.10900
H581        H  0.20908608  0.18253522  0.58256087     0.16300
H582        H  0.23176873  0.25972383  0.53850556     0.12200
H583        H  0.27669143  0.31047413  0.67146142     0.15100
H584        H  0.25392498  0.23307798  0.71511156     0.14900
C585        C  0.37601596  0.41313518  0.70326074    -0.18000
C586        C  0.35575128  0.39243416  0.70321103    -0.20200
C587        C  0.35445631  0.37276088  0.72680946     0.20500
C588        C  0.37368112  0.37400936  0.75078157    -0.03100
C589        C  0.39408364  0.39491578  0.75086418    -0.06200
C590        C  0.39529832  0.41448938  0.72691161     0.20700
C591        C  0.41322806  0.39623855  0.77491891     0.18900
C592        C  0.41200179  0.37650309  0.79845253    -0.17600
C593        C  0.39181014  0.35573599  0.79833178    -0.19900
C594        C  0.37248856  0.35442729  0.77471798     0.20400
C595        C  0.35192406  0.33396726  0.77470090    -0.32900
C596        C  0.33266370  0.33263658  0.75093547     0.01100
C597        C  0.33419485  0.35196289  0.72694024    -0.24200
C598        C  0.41579368  0.43503520  0.72702799    -0.28800
C599        C  0.43479562  0.43653624  0.75100752     0.06800
C600        C  0.43329628  0.41722455  0.77497547    -0.27500
H601        H  0.37662022  0.42808706  0.68477744     0.11500
H602        H  0.34108143  0.39180901  0.68470542     0.12600
H603        H  0.42664097  0.37715645  0.81698397     0.11700
H604        H  0.39123144  0.34075907  0.81679253     0.10900
H605        H  0.35102982  0.31894469  0.79312215     0.16300
H606        H  0.31934612  0.35110998  0.70859970     0.12200
H607        H  0.41678228  0.45008327  0.70863161     0.15100
H608        H  0.44804679  0.41825424  0.79340388     0.14900
C609        C  0.11941275  0.11232159  0.94606732    -0.18000
C610        C  0.09836428  0.09246194  0.94597294    -0.20200
C611        C  0.08617268  0.08410159  0.97321249     0.20500
C612        C  0.09528864  0.09580356  0.50083599    -0.03100
C613        C  0.11652050  0.11581549  0.50092783    -0.06200
C614        C  0.12860406  0.12412389  0.97339932     0.20700
C615        C  0.12562446  0.12751209  0.52854914     0.18900
C616        C  0.11345747  0.11914871  0.55579542    -0.17600
C617        C  0.09242203  0.09929849  0.55570656    -0.19900
C618        C  0.08323044  0.08751214  0.52837504     0.20400
C619        C  0.06224270  0.06753091  0.52813423    -0.32900
C620        C  0.05305616  0.05572216  0.00071514     0.01100
C621        C  0.06508847  0.06418265  0.97332737    -0.24200
C622        C  0.14961065  0.14411563  0.97366731    -0.28800
C623        C  0.15875545  0.15596192  0.00110733     0.06800
C624        C  0.14667409  0.14742787  0.52846570    -0.27500
H625        H  0.12849871  0.11846760  0.92474335     0.11500
H626        H  0.09161580  0.08363716  0.92458552     0.12600
H627        H  0.12021408  0.12796643  0.57718382     0.11700
H628        H  0.08334599  0.09314655  0.57703463     0.10900
H629        H  0.05308031  0.06118715  0.54936309     0.16300
H630        H  0.05821161  0.05512596  0.95208838     0.12200
H631        H  0.15876587  0.15046178  0.95243907     0.15100
H632        H  0.15348969  0.15639976  0.54976734     0.14900
C633        C  0.08358994  0.88712960  0.94405960    -0.18000
C634        C  0.10335345  0.86591148  0.94384330    -0.20200
C635        C  0.11833810  0.85956497  0.97021976     0.20500
C636        C  0.11343756  0.87479047  0.49702190    -0.03100
C637        C  0.09356121  0.89619869  0.49721630    -0.06200
C638        C  0.07848212  0.90232332  0.97062913     0.20700
C639        C  0.08866556  0.91132938  0.52407625     0.18900
C640        C  0.10389820  0.90528610  0.55032010    -0.17600
C641        C  0.12355249  0.88404746  0.55012762    -0.19900
C642        C  0.12832963  0.86859459  0.52369294     0.20400
C643        C  0.14779146  0.84710641  0.52349043    -0.32900
C644        C  0.15291192  0.83187424  0.49689627     0.01100
C645        C  0.13812329  0.83826098  0.97028957    -0.24200
C646        C  0.05835146  0.92326171  0.97125571    -0.28800
C647        C  0.05293542  0.93792588  0.49821026     0.06800
C648        C  0.06840488  0.93203707  0.52439940    -0.27500
H649        H  0.07218823  0.89156110  0.92344491     0.11500
H650        H  0.10686266  0.85442013  0.92310329     0.12600
H651        H  0.10045797  0.91683080  0.57104189     0.11700
H652        H  0.13496002  0.87962836  0.57074085     0.10900
H653        H  0.15926086  0.84254313  0.54403260     0.16300
H654        H  0.14187932  0.82657726  0.94971028     0.12200
H655        H  0.04656923  0.92776354  0.95091483     0.15100
H656        H  0.06463265  0.94350720  0.54511748     0.14900
C657        C  0.40168833  0.60582019  0.80390575    -0.18000
C658        C  0.38165974  0.62678213  0.80350176    -0.20200
C659        C  0.36722779  0.63293334  0.77670237     0.20500
C660        C  0.37296689  0.61775802  0.75008874    -0.03100
C661        C  0.39320156  0.59663477  0.75049541    -0.06200
C662        C  0.40766140  0.59067380  0.77753215     0.20700
C663        C  0.39904140  0.58160479  0.72381284     0.18900
C664        C  0.38441209  0.58754068  0.69709838    -0.17600
C665        C  0.36434794  0.60843038  0.69672031    -0.19900
C666        C  0.35858235  0.62374361  0.72302127     0.20400
C667        C  0.33871806  0.64493800  0.72269127    -0.32900
C668        C  0.33284780  0.66023097  0.74910325     0.01100
C669        C  0.34720426  0.65401310  0.77606410    -0.24200
C670        C  0.42793443  0.56981843  0.77765051    -0.28800
C671        C  0.43415791  0.55501546  0.75101093     0.06800
C672        C  0.41950158  0.56100360  0.72421843    -0.27500
H673        H  0.41259188  0.60151993  0.82487164     0.11500
H674        H  0.37749349  0.63821816  0.82412947     0.12600
H675        H  0.38857239  0.57610747  0.67646653     0.11700
H676        H  0.35340020  0.61268969  0.67577166     0.10900
H677        H  0.32771317  0.64937304  0.70181709     0.16300
H678        H  0.34292586  0.66563494  0.79655720     0.12200
H679        H  0.43911374  0.56537891  0.79841080     0.15100
H680        H  0.42395320  0.54957619  0.70363893     0.14900
C681        C  0.20771999  0.78277026  0.63564815    -0.18000
C682        C  0.21839276  0.77317629  0.66323165    -0.20200
C683        C  0.23770545  0.75140979  0.66387599     0.20500
C684        C  0.24619332  0.73903913  0.63649873    -0.03100
C685        C  0.23543921  0.74874646  0.60865893    -0.06200
C686        C  0.21619246  0.77077793  0.60826693     0.20700
C687        C  0.24411621  0.73656409  0.58124730     0.18900
C688        C  0.26319651  0.71458573  0.58192664    -0.17600
C689        C  0.27382911  0.70494883  0.60952548    -0.19900
C690        C  0.26558128  0.71712924  0.63689710     0.20400
C691        C  0.27653163  0.70792084  0.66461151    -0.32900
C692        C  0.26839514  0.72031376  0.69203592     0.01100
C693        C  0.24880596  0.74196596  0.69141078    -0.24200
C694        C  0.20592153  0.78059867  0.58051512    -0.28800
C695        C  0.21471651  0.76884178  0.55300693     0.06800
C696        C  0.23374058  0.74669141  0.55362820    -0.27500
H697        H  0.19292363  0.79969722  0.63572800     0.11500
H698        H  0.21163911  0.78286699  0.68405442     0.12600
H699        H  0.27000810  0.70495068  0.56110073     0.11700
H700        H  0.28865000  0.68804538  0.60944148     0.10900
H701        H  0.29151143  0.69115864  0.66473990     0.16300
H702        H  0.24229599  0.75169126  0.71232476     0.12200
H703        H  0.19127494  0.79766807  0.58040846     0.15100
H704        H  0.24057124  0.73734349  0.53264371     0.14900
C705        C  0.20027647  0.77311867  0.85898848    -0.18000
C706        C  0.21121042  0.76386771  0.83159367    -0.20200
C707        C  0.23644392  0.74987187  0.83106582     0.20500
C708        C  0.25094146  0.74530481  0.85837922    -0.03100
C709        C  0.23990709  0.75460561  0.88603610    -0.06200
C710        C  0.21442425  0.76848542  0.88630776     0.20700
C711        C  0.25424352  0.74976659  0.91340721     0.18900
C712        C  0.27965061  0.73610049  0.91282098    -0.17600
C713        C  0.29060119  0.72686496  0.88540534    -0.19900
C714        C  0.27629417  0.73116723  0.85811435     0.20400
C715        C  0.28675036  0.72125498  0.83063627    -0.32900
C716        C  0.27222799  0.72538861  0.80335280     0.01100
C717        C  0.24724432  0.74003601  0.80376811    -0.24200
C718        C  0.20339286  0.77731577  0.91389502    -0.28800
C719        C  0.21736180  0.77222406  0.94133290     0.06800
C720        C  0.24283364  0.75850928  0.94086430    -0.27500
H721        H  0.18070934  0.78374002  0.85883855     0.11500
H722        H  0.19981245  0.76752568  0.81079169     0.12600
H723        H  0.29099728  0.73235169  0.93363587     0.11700
H724        H  0.31012828  0.71616788  0.88556579     0.10900
H725        H  0.30610090  0.71019496  0.83055268     0.16300
H726        H  0.23582758  0.74329103  0.78289912     0.12200
H727        H  0.18375043  0.78782678  0.91399215     0.15100
H728        H  0.25389089  0.75474048  0.96186724     0.14900
C729        C  0.90908486  0.11296421  0.95358810    -0.18000
C730        C  0.88750896  0.13218225  0.95279496    -0.20200
C731        C  0.86907121  0.13380574  0.97694242     0.20500
C732        C  0.87266661  0.11622332  0.50240904    -0.03100
C733        C  0.89446252  0.09686692  0.50324666    -0.06200
C734        C  0.91254084  0.09505621  0.97855661     0.20700
C735        C  0.89794194  0.07911930  0.52860198     0.18900
C736        C  0.87972897  0.08103319  0.55293454    -0.17600
C737        C  0.85810072  0.10021785  0.55210597    -0.19900
C738        C  0.85438348  0.11784770  0.52693607     0.20400
C739        C  0.83273137  0.13710147  0.52591102    -0.32900
C740        C  0.82899011  0.15463206  0.50057334     0.01100
C741        C  0.84716541  0.15273221  0.97610850    -0.24200
C742        C  0.93346958  0.07501759  0.97899902    -0.28800
C743        C  0.93670956  0.05688537  0.50389116     0.06800
C744        C  0.91924343  0.05943122  0.52888999    -0.27500
H745        H  0.92291025  0.11192003  0.93456303     0.11500
H746        H  0.88514190  0.14567688  0.93316853     0.12600
H747        H  0.88208979  0.06753074  0.57255420     0.11700
H748        H  0.84424160  0.10121645  0.57109705     0.10900
H749        H  0.81875448  0.13837536  0.54480072     0.16300
H750        H  0.84459111  0.16635453  0.95660492     0.12200
H751        H  0.94713896  0.07337918  0.95985637     0.15100
H752        H  0.92168555  0.04548595  0.54814490     0.14900
C753        C  0.59664634  0.39945227  0.69457047    -0.18000
C754        C  0.61757832  0.37943446  0.69434219    -0.20200
C755        C  0.62689484  0.36731470  0.72151231     0.20500
C756        C  0.61489267  0.37536184  0.74914775    -0.03100
C757        C  0.59374984  0.39556911  0.74936339    -0.06200
C758        C  0.58463732  0.40770162  0.72193298     0.20700
C759        C  0.58185510  0.40371594  0.77702185     0.18900
C760        C  0.59102525  0.39144481  0.80416981    -0.17600
C761        C  0.61195090  0.37143292  0.80393873    -0.19900
C762        C  0.62409607  0.36335002  0.77659491     0.20400
C763        C  0.64536636  0.34360388  0.77625810    -0.32900
C764        C  0.65765358  0.33555473  0.74883541     0.01100
C765        C  0.64810482  0.34743648  0.72150603    -0.24200
C766        C  0.56378569  0.42793676  0.72235483    -0.28800
C767        C  0.55191804  0.43637302  0.74985364     0.06800
C768        C  0.56108525  0.42405833  0.77710549    -0.27500
H769        H  0.58989204  0.40855714  0.67327787     0.11500
H770        H  0.62654272  0.37350494  0.67293779     0.12600
H771        H  0.58208371  0.39739723  0.82557998     0.11700
H772        H  0.61872882  0.36235062  0.82523390     0.10900
H773        H  0.65233471  0.33451451  0.79747558     0.16300
H774        H  0.65731061  0.34145198  0.70023034     0.12200
H775        H  0.55695285  0.43727516  0.70120917     0.15100
H776        H  0.55208869  0.43028574  0.79841287     0.14900
C777        C  0.75541162  0.20882379  0.66495217    -0.18000
C778        C  0.76423899  0.19744062  0.63748826    -0.20200
C779        C  0.76059114  0.21231294  0.61029023     0.20500
C780        C  0.74788495  0.23886803  0.61078771    -0.03100
C781        C  0.73896170  0.25032499  0.63848078    -0.06600
C782        C  0.74276168  0.23523504  0.66569565     0.20700
C783        C  0.72618367  0.27684972  0.63888976     0.18900
C784        C  0.72277493  0.29183804  0.61176546    -0.17600
C785        C  0.73167134  0.28051418  0.58436801    -0.19900
C786        C  0.74409119  0.25402762  0.58362035     0.20400
C787        C  0.75292042  0.24256079  0.55618873    -0.32900
C788        C  0.76584261  0.21624198  0.55545035     0.01100
C789        C  0.76955657  0.20119173  0.58264533    -0.24200
C790        C  0.73371272  0.24678186  0.69309350    -0.28800
C791        C  0.72054581  0.27303999  0.69359014     0.06800
C792        C  0.71691718  0.28793317  0.66636340    -0.27500
H793        H  0.75845687  0.19692333  0.68564332     0.11500
H794        H  0.77393753  0.17703881  0.63751928     0.12600
H795        H  0.71315560  0.31227491  0.61173223     0.11700
H796        H  0.72876528  0.29249015  0.56370381     0.10900
H797        H  0.75016812  0.25445814  0.53544293     0.16300
H798        H  0.77943626  0.18086807  0.58233054     0.12200
H799        H  0.73651562  0.23509369  0.71397284     0.15100
H800        H  0.70704994  0.30826451  0.66656828     0.14900
C801        C  0.78067504  0.21039019  0.86106528    -0.18000
C802        C  0.77174480  0.22178563  0.83352921    -0.20200
C803        C  0.75298584  0.24405457  0.83306373     0.20500
C804        C  0.74347000  0.25526112  0.86060440    -0.03100
C805        C  0.75250470  0.24376581  0.88840247    -0.06200
C806        C  0.77104887  0.22110360  0.88859174     0.20700
C807        C  0.74272970  0.25472682  0.91594865     0.18900
C808        C  0.72435056  0.27733571  0.91548058    -0.17600
C809        C  0.71538093  0.28870553  0.88792945    -0.19900
C810        C  0.72461571  0.27765679  0.86038592     0.20400
C811        C  0.71493190  0.28824694  0.83266278    -0.32900
C812        C  0.72374770  0.27669368  0.80505803     0.01100
C813        C  0.74319045  0.25490749  0.80552843    -0.24200
C814        C  0.77951619  0.20942531  0.91626309    -0.28800
C815        C  0.76970621  0.22003497  0.94388804     0.06800
C816        C  0.75134948  0.24279795  0.94346795    -0.27500
H817        H  0.79498827  0.19303751  0.86081902     0.11500
H818        H  0.77929576  0.21298878  0.81258420     0.12600
H819        H  0.71674023  0.28607900  0.93642323     0.11700
H820        H  0.70097808  0.30598117  0.88816990     0.10900
H821        H  0.70016205  0.30520301  0.83266569     0.16300
H822        H  0.75031134  0.24590864  0.78448418     0.12200
H823        H  0.79366558  0.19192376  0.91619964     0.15100
H824        H  0.74371025  0.25127961  0.96453578     0.14900
C825        C  0.88600529  0.90460008  0.55510949    -0.18000
C826        C  0.86517327  0.88446120  0.55480034    -0.20200
C827        C  0.85883367  0.86978526  0.52811553     0.20500
C828        C  0.87372068  0.87536695  0.00150002    -0.03100
C829        C  0.89473151  0.89569644  0.00180146    -0.06200
C830        C  0.90084666  0.91041983  0.52872867     0.20700
C831        C  0.90940900  0.90145009  0.97509382     0.18900
C832        C  0.90325128  0.88660189  0.94849269    -0.17600
C833        C  0.88245626  0.86645510  0.94820072    -0.19900
C834        C  0.86746831  0.86081280  0.97451236     0.20400
C835        C  0.84631248  0.84092683  0.97425409    -0.32900
C836        C  0.83136562  0.83518336  0.00068820     0.01100
C837        C  0.83784595  0.84970454  0.52755942    -0.24200
C838        C  0.92154736  0.93083562  0.52871747    -0.28800
C839        C  0.93600482  0.93696765  0.00202847     0.06800
C840        C  0.92984450  0.92208078  0.97536257    -0.27500
H841        H  0.89043817  0.91570956  0.57596617     0.11500
H842        H  0.85395403  0.88041753  0.57543923     0.12600
H843        H  0.91442769  0.89068490  0.92783633     0.11700
H844        H  0.87800189  0.85537333  0.92733257     0.10900
H845        H  0.84162879  0.82980365  0.95345802     0.16300
H846        H  0.82644276  0.84556082  0.54806117     0.12200
H847        H  0.92610469  0.94225689  0.54936131     0.15100
H848        H  0.94100807  0.92650367  0.95476296     0.14900
C849        C  0.61647700  0.61313666  0.69453034    -0.18000
C850        C  0.59583257  0.59281506  0.69468266    -0.20200
C851        C  0.58387925  0.58437685  0.72203084     0.20500
C852        C  0.59281613  0.59649443  0.74950647    -0.03100
C853        C  0.61364277  0.61698064  0.74935283    -0.06200
C854        C  0.62550518  0.62534900  0.72172914     0.20700
C855        C  0.62257043  0.62906477  0.77683907     0.18900
C856        C  0.61062303  0.62064060  0.80418858    -0.17600
C857        C  0.58998908  0.60034095  0.80434233    -0.19900
C858        C  0.58098003  0.58813807  0.77715066     0.20400
C859        C  0.56039185  0.56768641  0.77715879    -0.32900
C860        C  0.55139114  0.55545148  0.74987965     0.01100
C861        C  0.56320800  0.56399328  0.72238818    -0.24200
C862        C  0.64615264  0.64579035  0.72177712    -0.28800
C863        C  0.65517726  0.65797450  0.74911699     0.06800
C864        C  0.64325477  0.64939661  0.77654715    -0.27500
H865        H  0.62538037  0.61930805  0.67312913     0.11500
H866        H  0.58921736  0.58368934  0.67339277     0.12600
H867        H  0.61724647  0.62975073  0.82547873     0.11700
H868        H  0.58109281  0.59416411  0.82574872     0.10900
H869        H  0.55138905  0.56131731  0.79845413     0.16300
H870        H  0.55646224  0.55466862  0.70123862     0.12200
H871        H  0.65517448  0.65215730  0.70049554     0.15100
H872        H  0.64993407  0.65862303  0.79776475     0.14900
C873        C  0.72144272  0.71703767  0.91563684    -0.18000
C874        C  0.71116160  0.70681541  0.88813180    -0.20200
C875        C  0.71910357  0.71904188  0.86062073     0.20500
C876        C  0.73761704  0.74174713  0.86082584    -0.03100
C877        C  0.74800736  0.75204305  0.88858223    -0.06200
C878        C  0.73984857  0.73963975  0.91610429     0.20700
C879        C  0.76653718  0.77473825  0.88876271     0.18900
C880        C  0.77445799  0.78697441  0.86126056    -0.17600
C881        C  0.76415626  0.77678026  0.83377470    -0.19900
C882        C  0.74576981  0.75418357  0.83331483     0.20400
C883        C  0.73543023  0.74383296  0.80582139    -0.32900
C884        C  0.71694533  0.72119723  0.80534549     0.01100
C885        C  0.70887272  0.70894748  0.83293597    -0.24200
C886        C  0.75021160  0.75005660  0.94358913    -0.28800
C887        C  0.76874664  0.77269487  0.94401264     0.06800
C888        C  0.77681472  0.78485644  0.91640578    -0.27500
H889        H  0.71497971  0.70725228  0.93657335     0.11500
H890        H  0.69698471  0.68935272  0.88837707     0.12600
H891        H  0.78863262  0.80443374  0.86100690     0.11700
H892        H  0.77060028  0.78658402  0.81284203     0.10900
H893        H  0.74178818  0.75351473  0.78478441     0.16300
H894        H  0.69470573  0.69146147  0.83294190     0.12200
H895        H  0.74384803  0.74042575  0.96465245     0.15100
H896        H  0.79097885  0.80234009  0.91636262     0.14900
C897        C  0.72853135  0.71228144  0.58452893    -0.18000
C898        C  0.71858005  0.70180719  0.61192365    -0.20200
C899        C  0.72270700  0.71671256  0.63896210     0.20500
C900        C  0.73713100  0.74233968  0.63843719    -0.03100
C901        C  0.74718357  0.75289831  0.61078653    -0.06200
C902        C  0.74278703  0.73780899  0.58371306     0.20700
C903        C  0.76165194  0.77850035  0.61025869     0.18900
C904        C  0.76581039  0.79338644  0.63730739    -0.17600
C905        C  0.75582650  0.78292637  0.66470345    -0.19900
C906        C  0.74152951  0.75741743  0.66551853     0.20400
C907        C  0.73153997  0.74674585  0.69291328    -0.32900
C908        C  0.71698535  0.72128440  0.69362169     0.01100
C909        C  0.71264664  0.70641966  0.66648769    -0.24200
C910        C  0.75280973  0.74843509  0.55632855    -0.28800
C911        C  0.76746845  0.77382455  0.55561930     0.06800
C912        C  0.77178156  0.78873742  0.58273058    -0.27500
H913        H  0.72506532  0.70038940  0.56394714     0.11500
H914        H  0.70762730  0.68206562  0.61196012     0.12600
H915        H  0.77682222  0.81309350  0.63727982     0.11700
H916        H  0.75932719  0.79479840  0.68529296     0.10900
H917        H  0.73489305  0.75844804  0.71365324     0.16300
H918        H  0.70162049  0.68670805  0.66677858     0.12200
H919        H  0.74949604  0.73668783  0.53561164     0.15100
H920        H  0.78290932  0.80839008  0.58242703     0.14900
loop_ 
_geom_bond_atom_site_label_1 
_geom_bond_atom_site_label_2 
_geom_bond_distance 
_geom_bond_site_symmetry_2 
_ccdc_geom_bond_type 
C1            N2   1.359       .  A
C1            N6   1.358       .  A
C1          C403   1.483       .  S
N2            C3   1.359       .  A
C3            N4   1.359       .  A
C3          C448   1.482       .  S
N4            C5   1.359       .  A
C5            N6   1.358       .  A
C5          C424   1.484       .  S
C7            N8   1.360       .  A
C7          N472   1.359       .  A
C7          C376   1.484       .  S
N8            C9   1.360       .  A
C9           N10   1.359       .  A
C9          C427   1.485       .  S
N10         C471   1.358       .  A
C11          N12   1.358       .  A
C11         N470   1.358   1_554  A
C11         C451   1.481       .  S
N12         C467   1.359       .  A
C13          N14   1.359       .  A
C13          N18   1.360       .  A
C13         C304   1.487       .  S
N14          C15   1.359       .  A
C15          N16   1.358       .  A
C15         C352   1.484       .  S
N16          C17   1.358       .  A
C17          N18   1.361       .  A
C17         C331   1.481       .  S
C19          N20   1.358       .  A
C19         N484   1.358       .  A
C19         C740   1.478       .  S
N20          C21   1.359       .  A
C21          N22   1.359       .  A
C21         C355   1.485       .  S
N22         C483   1.360       .  A
C23          N24   1.358       .  A
C23         N482   1.360   1_554  A
C23         C328   1.481       .  S
N24         C479   1.358       .  A
C25          N26   1.359       .  A
C25          N30   1.360       .  A
C25         C208   1.484       .  S
N26          C27   1.358       .  A
C27          N28   1.358       .  A
C27         C256   1.480       .  S
N28          C29   1.358       .  A
C29          N30   1.359       .  A
C29         C232   1.484       .  S
C31          N32   1.356       .  A
C31         N496   1.357       .  A
C31         C644   1.478       .  S
N32          C33   1.358       .  A
C33          N34   1.360       .  A
C33         C259   1.479       .  S
N34         C495   1.359       .  A
C35          N36   1.357       .  A
C35         N494   1.359   1_554  A
C35         C235   1.483       .  S
N36         C491   1.357   1_554  A
O37         Ni45   1.916       .  S
O37         C507   1.281       .  A
O38         Ni45   1.912   1_445  S
O38         C508   1.281       .  A
O39         Ni45   1.916   1_545  S
O39          C49   1.281       .  A
O40         Ni45   1.915   1_455  S
O40          C50   1.282   1_554  A
O41         Ni46   1.912   1_455  S
O41         C510   1.280       .  A
O42         Ni46   1.912   1_545  S
O42         C509   1.281       .  A
O43         Ni46   1.914   1_445  S
O43          C48   1.281       .  A
O44         Ni46   1.918       .  S
O44          C47   1.282       .  A
Ni45       Ni506   2.388   1_554  S
Ni46       Ni505   2.388       .  S
C47         C379   1.480       .  S
C47         O497   1.281       .  A
C48         C160   1.477       .  S
C48         O498   1.281       .  A
C49         C283   1.474       .  S
C49         O502   1.281   1_554  A
C50         C187   1.477       .  S
C50         O501   1.280       .  A
O51         Ni59   1.921       .  S
O51          C61   1.282       .  A
O52         Ni59   1.920       .  S
O52          C62   1.282       .  A
O53         Ni59   1.915       .  S
O53          C63   1.282       .  A
O54         Ni59   1.915       .  S
O54          C64   1.281       .  A
O55         Ni60   1.912       .  S
O55          C64   1.280       .  A
O56         Ni60   1.914       .  S
O56          C63   1.281       .  A
O57         Ni60   1.920       .  S
O57          C62   1.282       .  A
O58         Ni60   1.916       .  S
O58          C61   1.282       .  A
Ni59        Ni60   2.387       .  S
C61         C211   1.482       .  S
C62         C307   1.486       .  S
C63         C400   1.479       .  S
C64         C139   1.472       .  S
C65          N70   1.357       .  A
C65         N526   1.356       .  A
C65         C163   1.480       .  S
N66          C67   1.356       .  A
N66         C525   1.356       .  A
C67         N528   1.358       .  A
C67         C112   1.475       .  S
N68          C69   1.359       .  A
N68         C527   1.358       .  A
C69          N70   1.358       .  A
C69          C91   1.481       .  S
C71          N72   1.358       .  A
C71          N76   1.358       .  A
C71         C136   1.476       .  S
N72          C73   1.358       .  A
C73          N74   1.358       .  A
C73         C115   1.477       .  S
N74          C75   1.358       .  A
C75          N76   1.358       .  A
C75          C88   1.480       .  S
C77          C78   1.398       .  A
C77          C82   1.403       .  A
C77          H93   1.084       .  S
C78          C79   1.403       .  A
C78          H94   1.083       .  S
C79          C89   1.401       .  A
C79          C80   1.411       .  A
C80          C86   1.411       .  A
C80          C81   1.410       .  A
C81          C83   1.411       .  A
C81          C82   1.411       .  A
C82          C90   1.401       .  A
C83          C92   1.401       .  A
C83          C84   1.404       .  A
C84          C85   1.398       .  A
C84          H95   1.083       .  S
C85          C86   1.403       .  A
C85          H96   1.084       .  S
C86          C87   1.401       .  A
C87          C88   1.407       .  A
C87          H97   1.084       .  S
C88          C89   1.407       .  A
C89          H98   1.083       .  S
C90          C91   1.407       .  A
C90          H99   1.084       .  S
C91          C92   1.408       .  A
C92         H100   1.084       .  S
C101        C102   1.399       .  A
C101        C106   1.404       .  A
C101        H117   1.083       .  S
C102        C103   1.403       .  A
C102        H118   1.084       .  S
C103        C113   1.402       .  A
C103        C104   1.412       .  A
C104        C110   1.411       .  A
C104        C105   1.410       .  A
C105        C107   1.411       .  A
C105        C106   1.411       .  A
C106        C114   1.402       .  A
C107        C116   1.400       .  A
C107        C108   1.403       .  A
C108        C109   1.397       .  A
C108        H119   1.084       .  S
C109        C110   1.403       .  A
C109        H120   1.083       .  S
C110        C111   1.399       .  A
C111        C112   1.406       .  A
C111        H121   1.084       .  S
C112        C113   1.406       .  A
C113        H122   1.084       .  S
C114        C115   1.407       .  A
C114        H123   1.084       .  S
C115        C116   1.406       .  A
C116        H124   1.084       .  S
C125        C126   1.398       .  A
C125        C130   1.403       .  A
C125        H141   1.084       .  S
C126        C127   1.403       .  A
C126        H142   1.084       .  S
C127        C137   1.401       .  A
C127        C128   1.412       .  A
C128        C134   1.411       .  A
C128        C129   1.410       .  A
C129        C131   1.412       .  A
C129        C130   1.411       .  A
C130        C138   1.401       .  A
C131        C140   1.401       .  A
C131        C132   1.403       .  A
C132        C133   1.398       .  A
C132        H143   1.084       .  S
C133        C134   1.403       .  A
C133        H144   1.084       .  S
C134        C135   1.400       .  A
C135        C136   1.406       .  A
C135        H145   1.084       .  S
C136        C137   1.406       .  A
C137        H146   1.084       .  S
C138        C139   1.405       .  A
C138        H147   1.085       .  S
C139        C140   1.404       .  A
C140        H148   1.084       .  S
C149        C150   1.398       .  A
C149        C154   1.403       .  A
C149        H165   1.084       .  S
C150        C151   1.403       .  A
C150        H166   1.084       .  S
C151        C161   1.401       .  A
C151        C612   1.411       .  A
C152        C158   1.411       .  A
C152        C153   1.409       .  A
C152        C611   1.411   1_554  A
C153        C155   1.411       .  A
C153        C614   1.411   1_554  A
C154        C162   1.401       .  A
C154        C613   1.411       .  A
C155        C164   1.400       .  A
C155        C156   1.403       .  A
C156        C157   1.397       .  A
C156        H167   1.084       .  S
C157        C158   1.403       .  A
C157        H168   1.084       .  S
C158        C159   1.400       .  A
C159        C620   1.406       .  A
C159        H169   1.084       .  S
C160        C161   1.407       .  A
C160        C619   1.406       .  A
C161        H170   1.084       .  S
C162        C163   1.407       .  A
C162        H171   1.084       .  S
C163        C624   1.407       .  A
C164        C623   1.407       .  A
C164        H172   1.084       .  S
C173        C174   1.399       .  A
C173        C178   1.404       .  A
C173        H189   1.084       .  S
C174        C175   1.404       .  A
C174        H190   1.083       .  S
C175        C185   1.403       .  A
C175        C636   1.411       .  A
C176        C182   1.411   1_556  A
C176        C177   1.410       .  A
C176        C635   1.411       .  A
C177        C179   1.411   1_556  A
C177        C638   1.411       .  A
C178        C186   1.403       .  A
C178        C637   1.411       .  A
C179        C188   1.399       .  A
C179        C180   1.403       .  A
C180        C181   1.396       .  A
C180        H191   1.083       .  S
C181        C182   1.402       .  A
C181        H192   1.084       .  S
C182        C183   1.399       .  A
C183        C184   1.406   1_554  A
C183        H193   1.085       .  S
C184        C491   1.478       .  S
C184        C645   1.408       .  A
C185        C644   1.408       .  A
C185        H194   1.083       .  S
C186        C647   1.407       .  A
C186        H195   1.085       .  S
C187        C188   1.405   1_556  A
C187        C646   1.407       .  A
C188        H196   1.083       .  S
C197        C198   1.399       .  A
C197        C202   1.404       .  A
C197        H213   1.084       .  S
C198        C199   1.404       .  A
C198        H214   1.083       .  S
C199        C209   1.403       .  A
C199        C200   1.411       .  A
C200        C206   1.411       .  A
C200        C201   1.412       .  A
C201        C203   1.411       .  A
C201        C202   1.412       .  A
C202        C210   1.404       .  A
C203        C212   1.402       .  A
C203        C204   1.404       .  A
C204        C205   1.398       .  A
C204        H215   1.083       .  S
C205        C206   1.403       .  A
C205        H216   1.084       .  S
C206        C207   1.402       .  A
C207        C208   1.408       .  A
C207        H217   1.084       .  S
C208        C209   1.409       .  A
C209        H218   1.083       .  S
C210        C211   1.408       .  A
C210        H219   1.084       .  S
C211        C212   1.408       .  A
C212        H220   1.084       .  S
C221        C222   1.398       .  A
C221        C226   1.403       .  A
C221        H237   1.084       .  S
C222        C223   1.404       .  A
C222        H238   1.083       .  S
C223        C233   1.402       .  A
C223        C224   1.411       .  A
C224        C230   1.411       .  A
C224        C225   1.411       .  A
C225        C227   1.411       .  A
C225        C226   1.411       .  A
C226        C234   1.401       .  A
C227        C236   1.403       .  A
C227        C228   1.403       .  A
C228        C229   1.399       .  A
C228        H239   1.083       .  S
C229        C230   1.403       .  A
C229        H240   1.084       .  S
C230        C231   1.402       .  A
C231        C232   1.408       .  A
C231        H241   1.084       .  S
C232        C233   1.409       .  A
C233        H242   1.084       .  S
C234        C235   1.408       .  A
C234        H243   1.084       .  S
C235        C236   1.408       .  A
C236        H244   1.084       .  S
C245        C246   1.398       .  A
C245        C250   1.403       .  A
C245        H261   1.082       .  S
C246        C247   1.403       .  A
C246        H262   1.085       .  S
C247        C257   1.401       .  A
C247        C248   1.411       .  A
C248        C254   1.411       .  A
C248        C249   1.410       .  A
C249        C251   1.411       .  A
C249        C250   1.411       .  A
C250        C258   1.401       .  A
C251        C260   1.402       .  A
C251        C252   1.403       .  A
C252        C253   1.399       .  A
C252        H263   1.085       .  S
C253        C254   1.404       .  A
C253        H264   1.082       .  S
C254        C255   1.402       .  A
C255        C256   1.408       .  A
C255        H265   1.083       .  S
C256        C257   1.407       .  A
C257        H266   1.085       .  S
C258        C259   1.407       .  A
C258        H267   1.083       .  S
C259        C260   1.407       .  A
C260        H268   1.085       .  S
C269        C270   1.398       .  A
C269        C274   1.403       .  A
C269        H285   1.083       .  S
C270        C271   1.403       .  A
C270        H286   1.084       .  S
C271        C281   1.401       .  A
C271        C732   1.412       .  A
C272        C278   1.411       .  A
C272        C273   1.410       .  A
C272        C731   1.412   1_554  A
C273        C275   1.412       .  A
C273        C734   1.411   1_554  A
C274        C282   1.400       .  A
C274        C733   1.411       .  A
C275        C284   1.402       .  A
C275        C276   1.403       .  A
C276        C277   1.399       .  A
C276        H287   1.084       .  S
C277        C278   1.404       .  A
C277        H288   1.083       .  S
C278        C279   1.402       .  A
C279        C280   1.407       .  A
C279        H289   1.083       .  S
C280        C479   1.478       .  S
C280        C741   1.406   1_554  A
C281        C740   1.406       .  A
C281        H290   1.085       .  S
C282        C743   1.406       .  A
C282        H291   1.084       .  S
C283        C284   1.405       .  A
C283        C742   1.406   1_554  A
C284        H292   1.085       .  S
C293        C294   1.400       .  A
C293        C298   1.404       .  A
C293        H309   1.085       .  S
C294        C295   1.404       .  A
C294        H310   1.082       .  S
C295        C305   1.405       .  A
C295        C296   1.411       .  A
C296        C302   1.411       .  A
C296        C297   1.413       .  A
C297        C299   1.411       .  A
C297        C298   1.411       .  A
C298        C306   1.404       .  A
C299        C308   1.405       .  A
C299        C300   1.404       .  A
C300        C301   1.399       .  A
C300        H311   1.082       .  S
C301        C302   1.403       .  A
C301        H312   1.085       .  S
C302        C303   1.403       .  A
C303        C304   1.409       .  A
C303        H313   1.085       .  S
C304        C305   1.409       .  A
C305        H314   1.083       .  S
C306        C307   1.408       .  A
C306        H315   1.085       .  S
C307        C308   1.409       .  A
C308        H316   1.083       .  S
C317        C318   1.400       .  A
C317        C322   1.404       .  A
C317        H333   1.084       .  S
C318        C319   1.404       .  A
C318        H334   1.083       .  S
C319        C329   1.404       .  A
C319        C320   1.411       .  A
C320        C326   1.411       .  A
C320        C321   1.412       .  A
C321        C323   1.411       .  A
C321        C322   1.411       .  A
C322        C330   1.404       .  A
C323        C332   1.402       .  A
C323        C324   1.403       .  A
C324        C325   1.398       .  A
C324        H335   1.082       .  S
C325        C326   1.402       .  A
C325        H336   1.084       .  S
C326        C327   1.400       .  A
C327        C328   1.406       .  A
C327        H337   1.085       .  S
C328        C329   1.409       .  A
C329        H338   1.083       .  S
C330        C331   1.409       .  A
C330        H339   1.085       .  S
C331        C332   1.406       .  A
C332        H340   1.083       .  S
C341        C342   1.398       .  A
C341        C346   1.403       .  A
C341        H357   1.084       .  S
C342        C343   1.403       .  A
C342        H358   1.083       .  S
C343        C353   1.402       .  A
C343        C344   1.411       .  A
C344        C350   1.411       .  A
C344        C345   1.412       .  A
C345        C347   1.411       .  A
C345        C346   1.411       .  A
C346        C354   1.402       .  A
C347        C356   1.403       .  A
C347        C348   1.404       .  A
C348        C349   1.399       .  A
C348        H359   1.083       .  S
C349        C350   1.403       .  A
C349        H360   1.084       .  S
C350        C351   1.403       .  A
C351        C352   1.408       .  A
C351        H361   1.084       .  S
C352        C353   1.408       .  A
C353        H362   1.084       .  S
C354        C355   1.408       .  A
C354        H363   1.084       .  S
C355        C356   1.409       .  A
C356        H364   1.084       .  S
C365        C366   1.399       .  A
C365        C370   1.404       .  A
C365        H381   1.084       .  S
C366        C367   1.404       .  A
C366        H382   1.084       .  S
C367        C377   1.403       .  A
C367        C828   1.411       .  A
C368        C374   1.411       .  A
C368        C369   1.412       .  A
C368        C827   1.411       .  A
C369        C371   1.411       .  A
C369        C830   1.412       .  A
C370        C378   1.404       .  A
C370        C829   1.412       .  A
C371        C380   1.402       .  A
C371        C372   1.403       .  A
C372        C373   1.398       .  A
C372        H383   1.084       .  S
C373        C374   1.403       .  A
C373        H384   1.083       .  S
C374        C375   1.403       .  A
C375        C376   1.408       .  A
C375        H385   1.084       .  S
C376        C837   1.409       .  A
C377        C836   1.409       .  A
C377        H386   1.084       .  S
C378        C839   1.408       .  A
C378        H387   1.084       .  S
C379        C380   1.406       .  A
C379        C838   1.408       .  A
C380        H388   1.084       .  S
C389        C390   1.399       .  A
C389        C394   1.404       .  A
C389        H405   1.083       .  S
C390        C391   1.403       .  A
C390        H406   1.084       .  S
C391        C401   1.402       .  A
C391        C392   1.411       .  A
C392        C398   1.411       .  A
C392        C393   1.411       .  A
C393        C395   1.410       .  A
C393        C394   1.411       .  A
C394        C402   1.403       .  A
C395        C404   1.401       .  A
C395        C396   1.403       .  A
C396        C397   1.398       .  A
C396        H407   1.083       .  S
C397        C398   1.403       .  A
C397        H408   1.083       .  S
C398        C399   1.401       .  A
C399        C400   1.407       .  A
C399        H409   1.084       .  S
C400        C401   1.408       .  A
C401        H410   1.084       .  S
C402        C403   1.408       .  A
C402        H411   1.084       .  S
C403        C404   1.408       .  A
C404        H412   1.084       .  S
C413        C414   1.399       .  A
C413        C418   1.404       .  A
C413        H429   1.084       .  S
C414        C415   1.404       .  A
C414        H430   1.083       .  S
C415        C425   1.403       .  A
C415        C416   1.411       .  A
C416        C422   1.411       .  A
C416        C417   1.412       .  A
C417        C419   1.411       .  A
C417        C418   1.411       .  A
C418        C426   1.403       .  A
C419        C428   1.403       .  A
C419        C420   1.403       .  A
C420        C421   1.398       .  A
C420        H431   1.083       .  S
C421        C422   1.403       .  A
C421        H432   1.084       .  S
C422        C423   1.402       .  A
C423        C424   1.407       .  A
C423        H433   1.084       .  S
C424        C425   1.409       .  A
C425        H434   1.084       .  S
C426        C427   1.409       .  A
C426        H435   1.084       .  S
C427        C428   1.408       .  A
C428        H436   1.084       .  S
C437        C438   1.398       .  A
C437        C442   1.403       .  A
C437        H453   1.084       .  S
C438        C439   1.404       .  A
C438        H454   1.083       .  S
C439        C449   1.402       .  A
C439        C440   1.411       .  A
C440        C446   1.411       .  A
C440        C441   1.411       .  A
C441        C443   1.411       .  A
C441        C442   1.411       .  A
C442        C450   1.402       .  A
C443        C452   1.403       .  A
C443        C444   1.404       .  A
C444        C445   1.399       .  A
C444        H455   1.083       .  S
C445        C446   1.403       .  A
C445        H456   1.084       .  S
C446        C447   1.402       .  A
C447        C448   1.408       .  A
C447        H457   1.084       .  S
C448        C449   1.408       .  A
C449        H458   1.084       .  S
C450        C451   1.407       .  A
C450        H459   1.084       .  S
C451        C452   1.408       .  A
C452        H460   1.084       .  S
C461        N462   1.359       .  A
C461        N466   1.358       .  A
C461        C863   1.483       .  S
N462        C463   1.359       .  A
C463        N464   1.359       .  A
C463        C908   1.482       .  S
N464        C465   1.359       .  A
C465        N466   1.358       .  A
C465        C884   1.484       .  S
C467        N468   1.360   1_554  A
C467        C836   1.484       .  S
N468        C469   1.360       .  A
C469        N470   1.359       .  A
C469        C887   1.485       .  S
C471        N472   1.358       .  A
C471        C911   1.481       .  S
C473        N474   1.359       .  A
C473        N478   1.360       .  A
C473        C764   1.487       .  S
N474        C475   1.359       .  A
C475        N476   1.358       .  A
C475        C812   1.484       .  S
N476        C477   1.358       .  A
C477        N478   1.360       .  A
C477        C791   1.481       .  S
C479        N480   1.358   1_554  A
N480        C481   1.359       .  A
C481        N482   1.359       .  A
C481        C815   1.485       .  S
C483        N484   1.358       .  A
C483        C788   1.481       .  S
C485        N486   1.359       .  A
C485        N490   1.360       .  A
C485        C668   1.484       .  S
N486        C487   1.358       .  A
C487        N488   1.358       .  A
C487        C716   1.480       .  S
N488        C489   1.358       .  A
C489        N490   1.359       .  A
C489        C692   1.484       .  S
C491        N492   1.356       .  A
N492        C493   1.358       .  A
C493        N494   1.360       .  A
C493        C719   1.479       .  S
C495        N496   1.357       .  A
C495        C695   1.483       .  S
O497       Ni505   1.916       .  S
O498       Ni505   1.912   1_445  S
O499       Ni505   1.915   1_545  S
O499        C509   1.281       .  A
O500       Ni505   1.915   1_455  S
O500        C510   1.282       .  A
O501       Ni506   1.912   1_455  S
O502       Ni506   1.913   1_545  S
O503       Ni506   1.914   1_445  S
O503        C508   1.281   1_556  A
O504       Ni506   1.918       .  S
O504        C507   1.282   1_556  A
C507        C839   1.480       .  S
C508        C620   1.477       .  S
C509        C743   1.474       .  S
C510        C647   1.477       .  S
O511       Ni519   1.921       .  S
O511        C521   1.282       .  A
O512       Ni519   1.920       .  S
O512        C522   1.282       .  A
O513       Ni519   1.915       .  S
O513        C523   1.282       .  A
O514       Ni519   1.915       .  S
O514        C524   1.281       .  A
O515       Ni520   1.912       .  S
O515        C524   1.280       .  A
O516       Ni520   1.914       .  S
O516        C523   1.281       .  A
O517       Ni520   1.920       .  S
O517        C522   1.282       .  A
O518       Ni520   1.916       .  S
O518        C521   1.282       .  A
Ni519      Ni520   2.387       .  S
C521        C671   1.482       .  S
C522        C767   1.486       .  S
C523        C860   1.479       .  S
C524        C599   1.472       .  S
C525        N530   1.357   1_554  A
C525        C623   1.480       .  S
N526        C527   1.356       .  A
C527        C572   1.475       .  S
N528        C529   1.359   1_554  A
C529        N530   1.358       .  A
C529        C551   1.481       .  S
C531        N532   1.358       .  A
C531        N536   1.358       .  A
C531        C596   1.476       .  S
N532        C533   1.358       .  A
C533        N534   1.358       .  A
C533        C575   1.477       .  S
N534        C535   1.358       .  A
C535        N536   1.358       .  A
C535        C548   1.480       .  S
C537        C538   1.398       .  A
C537        C542   1.403       .  A
C537        H553   1.084       .  S
C538        C539   1.403       .  A
C538        H554   1.083       .  S
C539        C549   1.401       .  A
C539        C540   1.411       .  A
C540        C546   1.411       .  A
C540        C541   1.410       .  A
C541        C543   1.411       .  A
C541        C542   1.411       .  A
C542        C550   1.401       .  A
C543        C552   1.401       .  A
C543        C544   1.404       .  A
C544        C545   1.398       .  A
C544        H555   1.083       .  S
C545        C546   1.403       .  A
C545        H556   1.084       .  S
C546        C547   1.401       .  A
C547        C548   1.407       .  A
C547        H557   1.084       .  S
C548        C549   1.407       .  A
C549        H558   1.083       .  S
C550        C551   1.407       .  A
C550        H559   1.084       .  S
C551        C552   1.408       .  A
C552        H560   1.084       .  S
C561        C562   1.399       .  A
C561        C566   1.404       .  A
C561        H577   1.083       .  S
C562        C563   1.403       .  A
C562        H578   1.084       .  S
C563        C573   1.402       .  A
C563        C564   1.412       .  A
C564        C570   1.411       .  A
C564        C565   1.410       .  A
C565        C567   1.411       .  A
C565        C566   1.411       .  A
C566        C574   1.402       .  A
C567        C576   1.400       .  A
C567        C568   1.403       .  A
C568        C569   1.397       .  A
C568        H579   1.084       .  S
C569        C570   1.403       .  A
C569        H580   1.083       .  S
C570        C571   1.399       .  A
C571        C572   1.406       .  A
C571        H581   1.084       .  S
C572        C573   1.406       .  A
C573        H582   1.084       .  S
C574        C575   1.407       .  A
C574        H583   1.084       .  S
C575        C576   1.406       .  A
C576        H584   1.084       .  S
C585        C586   1.398       .  A
C585        C590   1.403       .  A
C585        H601   1.084       .  S
C586        C587   1.403       .  A
C586        H602   1.084       .  S
C587        C597   1.401       .  A
C587        C588   1.412       .  A
C588        C594   1.411       .  A
C588        C589   1.410       .  A
C589        C591   1.412       .  A
C589        C590   1.411       .  A
C590        C598   1.401       .  A
C591        C600   1.401       .  A
C591        C592   1.403       .  A
C592        C593   1.398       .  A
C592        H603   1.084       .  S
C593        C594   1.403       .  A
C593        H604   1.084       .  S
C594        C595   1.400       .  A
C595        C596   1.406       .  A
C595        H605   1.084       .  S
C596        C597   1.406       .  A
C597        H606   1.084       .  S
C598        C599   1.405       .  A
C598        H607   1.085       .  S
C599        C600   1.404       .  A
C600        H608   1.084       .  S
C609        C610   1.398       .  A
C609        C614   1.403       .  A
C609        H625   1.084       .  S
C610        C611   1.403       .  A
C610        H626   1.084       .  S
C611        C621   1.401       .  A
C612        C618   1.411       .  A
C612        C613   1.409       .  A
C613        C615   1.411       .  A
C614        C622   1.401       .  A
C615        C624   1.400       .  A
C615        C616   1.403       .  A
C616        C617   1.397       .  A
C616        H627   1.084       .  S
C617        C618   1.403       .  A
C617        H628   1.084       .  S
C618        C619   1.400       .  A
C619        H629   1.084       .  S
C620        C621   1.407   1_554  A
C621        H630   1.084       .  S
C622        C623   1.407   1_556  A
C622        H631   1.084       .  S
C624        H632   1.084       .  S
C633        C634   1.399       .  A
C633        C638   1.404       .  A
C633        H649   1.084       .  S
C634        C635   1.404       .  A
C634        H650   1.083       .  S
C635        C645   1.403       .  A
C636        C642   1.411       .  A
C636        C637   1.410       .  A
C637        C639   1.411       .  A
C638        C646   1.403       .  A
C639        C648   1.399       .  A
C639        C640   1.403       .  A
C640        C641   1.396       .  A
C640        H651   1.083       .  S
C641        C642   1.402       .  A
C641        H652   1.084       .  S
C642        C643   1.399       .  A
C643        C644   1.406       .  A
C643        H653   1.085       .  S
C645        H654   1.083       .  S
C646        H655   1.085       .  S
C647        C648   1.405       .  A
C648        H656   1.083       .  S
C657        C658   1.399       .  A
C657        C662   1.404       .  A
C657        H673   1.084       .  S
C658        C659   1.404       .  A
C658        H674   1.083       .  S
C659        C669   1.403       .  A
C659        C660   1.411       .  A
C660        C666   1.411       .  A
C660        C661   1.412       .  A
C661        C663   1.411       .  A
C661        C662   1.412       .  A
C662        C670   1.404       .  A
C663        C672   1.402       .  A
C663        C664   1.404       .  A
C664        C665   1.398       .  A
C664        H675   1.083       .  S
C665        C666   1.403       .  A
C665        H676   1.084       .  S
C666        C667   1.402       .  A
C667        C668   1.408       .  A
C667        H677   1.084       .  S
C668        C669   1.409       .  A
C669        H678   1.083       .  S
C670        C671   1.408       .  A
C670        H679   1.084       .  S
C671        C672   1.408       .  A
C672        H680   1.084       .  S
C681        C682   1.398       .  A
C681        C686   1.403       .  A
C681        H697   1.084       .  S
C682        C683   1.404       .  A
C682        H698   1.083       .  S
C683        C693   1.402       .  A
C683        C684   1.411       .  A
C684        C690   1.411       .  A
C684        C685   1.411       .  A
C685        C687   1.411       .  A
C685        C686   1.411       .  A
C686        C694   1.401       .  A
C687        C696   1.403       .  A
C687        C688   1.403       .  A
C688        C689   1.399       .  A
C688        H699   1.083       .  S
C689        C690   1.403       .  A
C689        H700   1.084       .  S
C690        C691   1.402       .  A
C691        C692   1.408       .  A
C691        H701   1.084       .  S
C692        C693   1.409       .  A
C693        H702   1.084       .  S
C694        C695   1.408       .  A
C694        H703   1.084       .  S
C695        C696   1.408       .  A
C696        H704   1.084       .  S
C705        C706   1.398       .  A
C705        C710   1.403       .  A
C705        H721   1.082       .  S
C706        C707   1.403       .  A
C706        H722   1.085       .  S
C707        C717   1.401       .  A
C707        C708   1.411       .  A
C708        C714   1.411       .  A
C708        C709   1.410       .  A
C709        C711   1.411       .  A
C709        C710   1.411       .  A
C710        C718   1.401       .  A
C711        C720   1.402       .  A
C711        C712   1.403       .  A
C712        C713   1.399       .  A
C712        H723   1.085       .  S
C713        C714   1.404       .  A
C713        H724   1.082       .  S
C714        C715   1.402       .  A
C715        C716   1.408       .  A
C715        H725   1.083       .  S
C716        C717   1.407       .  A
C717        H726   1.085       .  S
C718        C719   1.407       .  A
C718        H727   1.083       .  S
C719        C720   1.407       .  A
C720        H728   1.085       .  S
C729        C730   1.398       .  A
C729        C734   1.403       .  A
C729        H745   1.083       .  S
C730        C731   1.403       .  A
C730        H746   1.084       .  S
C731        C741   1.401       .  A
C732        C738   1.411       .  A
C732        C733   1.410       .  A
C733        C735   1.412       .  A
C734        C742   1.400       .  A
C735        C744   1.402       .  A
C735        C736   1.403       .  A
C736        C737   1.399       .  A
C736        H747   1.084       .  S
C737        C738   1.404       .  A
C737        H748   1.083       .  S
C738        C739   1.402       .  A
C739        C740   1.407       .  A
C739        H749   1.083       .  S
C741        H750   1.085       .  S
C742        H751   1.084       .  S
C743        C744   1.405       .  A
C744        H752   1.085       .  S
C753        C754   1.400       .  A
C753        C758   1.404       .  A
C753        H769   1.085       .  S
C754        C755   1.404       .  A
C754        H770   1.082       .  S
C755        C765   1.405       .  A
C755        C756   1.411       .  A
C756        C762   1.411       .  A
C756        C757   1.413       .  A
C757        C759   1.411       .  A
C757        C758   1.411       .  A
C758        C766   1.404       .  A
C759        C768   1.404       .  A
C759        C760   1.404       .  A
C760        C761   1.399       .  A
C760        H771   1.082       .  S
C761        C762   1.403       .  A
C761        H772   1.085       .  S
C762        C763   1.403       .  A
C763        C764   1.409       .  A
C763        H773   1.085       .  S
C764        C765   1.409       .  A
C765        H774   1.083       .  S
C766        C767   1.408       .  A
C766        H775   1.085       .  S
C767        C768   1.409       .  A
C768        H776   1.083       .  S
C777        C778   1.400       .  A
C777        C782   1.404       .  A
C777        H793   1.084       .  S
C778        C779   1.404       .  A
C778        H794   1.083       .  S
C779        C789   1.404       .  A
C779        C780   1.411       .  A
C780        C786   1.411       .  A
C780        C781   1.412       .  A
C781        C783   1.411       .  A
C781        C782   1.411       .  A
C782        C790   1.404       .  A
C783        C792   1.402       .  A
C783        C784   1.403       .  A
C784        C785   1.398       .  A
C784        H795   1.082       .  S
C785        C786   1.402       .  A
C785        H796   1.084       .  S
C786        C787   1.400       .  A
C787        C788   1.406       .  A
C787        H797   1.085       .  S
C788        C789   1.409       .  A
C789        H798   1.083       .  S
C790        C791   1.409       .  A
C790        H799   1.085       .  S
C791        C792   1.406       .  A
C792        H800   1.083       .  S
C801        C802   1.398       .  A
C801        C806   1.403       .  A
C801        H817   1.084       .  S
C802        C803   1.403       .  A
C802        H818   1.083       .  S
C803        C813   1.402       .  A
C803        C804   1.411       .  A
C804        C810   1.411       .  A
C804        C805   1.412       .  A
C805        C807   1.411       .  A
C805        C806   1.411       .  A
C806        C814   1.402       .  A
C807        C816   1.403       .  A
C807        C808   1.404       .  A
C808        C809   1.399       .  A
C808        H819   1.083       .  S
C809        C810   1.403       .  A
C809        H820   1.084       .  S
C810        C811   1.403       .  A
C811        C812   1.408       .  A
C811        H821   1.084       .  S
C812        C813   1.408       .  A
C813        H822   1.084       .  S
C814        C815   1.408       .  A
C814        H823   1.084       .  S
C815        C816   1.409       .  A
C816        H824   1.084       .  S
C825        C826   1.399       .  A
C825        C830   1.404       .  A
C825        H841   1.084       .  S
C826        C827   1.404       .  A
C826        H842   1.084       .  S
C827        C837   1.403       .  A
C828        C834   1.411   1_554  A
C828        C829   1.412       .  A
C829        C831   1.411   1_554  A
C830        C838   1.404       .  A
C831        C840   1.402       .  A
C831        C832   1.403       .  A
C832        C833   1.398       .  A
C832        H843   1.084       .  S
C833        C834   1.403       .  A
C833        H844   1.083       .  S
C834        C835   1.403       .  A
C835        C836   1.408   1_556  A
C835        H845   1.084       .  S
C837        H846   1.084       .  S
C838        H847   1.084       .  S
C839        C840   1.406   1_554  A
C840        H848   1.084       .  S
C849        C850   1.399       .  A
C849        C854   1.404       .  A
C849        H865   1.083       .  S
C850        C851   1.403       .  A
C850        H866   1.084       .  S
C851        C861   1.402       .  A
C851        C852   1.411       .  A
C852        C858   1.411       .  A
C852        C853   1.411       .  A
C853        C855   1.410       .  A
C853        C854   1.411       .  A
C854        C862   1.403       .  A
C855        C864   1.401       .  A
C855        C856   1.403       .  A
C856        C857   1.398       .  A
C856        H867   1.083       .  S
C857        C858   1.403       .  A
C857        H868   1.084       .  S
C858        C859   1.401       .  A
C859        C860   1.407       .  A
C859        H869   1.084       .  S
C860        C861   1.408       .  A
C861        H870   1.084       .  S
C862        C863   1.408       .  A
C862        H871   1.084       .  S
C863        C864   1.408       .  A
C864        H872   1.084       .  S
C873        C874   1.399       .  A
C873        C878   1.404       .  A
C873        H889   1.084       .  S
C874        C875   1.404       .  A
C874        H890   1.083       .  S
C875        C885   1.403       .  A
C875        C876   1.411       .  A
C876        C882   1.411       .  A
C876        C877   1.412       .  A
C877        C879   1.411       .  A
C877        C878   1.411       .  A
C878        C886   1.403       .  A
C879        C888   1.403       .  A
C879        C880   1.403       .  A
C880        C881   1.398       .  A
C880        H891   1.083       .  S
C881        C882   1.403       .  A
C881        H892   1.084       .  S
C882        C883   1.402       .  A
C883        C884   1.407       .  A
C883        H893   1.084       .  S
C884        C885   1.409       .  A
C885        H894   1.084       .  S
C886        C887   1.409       .  A
C886        H895   1.084       .  S
C887        C888   1.408       .  A
C888        H896   1.084       .  S
C897        C898   1.398       .  A
C897        C902   1.403       .  A
C897        H913   1.084       .  S
C898        C899   1.404       .  A
C898        H914   1.083       .  S
C899        C909   1.402       .  A
C899        C900   1.411       .  A
C900        C906   1.411       .  A
C900        C901   1.411       .  A
C901        C903   1.411       .  A
C901        C902   1.411       .  A
C902        C910   1.402       .  A
C903        C912   1.403       .  A
C903        C904   1.404       .  A
C904        C905   1.399       .  A
C904        H915   1.083       .  S
C905        C906   1.403       .  A
C905        H916   1.084       .  S
C906        C907   1.402       .  A
C907        C908   1.408       .  A
C907        H917   1.084       .  S
C908        C909   1.408       .  A
C909        H918   1.084       .  S
C910        C911   1.407       .  A
C910        H919   1.084       .  S
C911        C912   1.408       .  A
C912        H920   1.084       .  S
