geometry optimzed in LAMMPS
_audit_creation_date              2020-11-30 
_audit_creation_method            'lammps2cif' 
_symmetry_space_group_name_H-M    'P1' 
_symmetry_Int_Tables_number       1 
_symmetry_cell_setting            triclinic 
loop_ 
_symmetry_equiv_pos_as_xyz 
  x,y,z 
_cell_length_a                    46.47038037 
_cell_length_b                    47.14048926560096 
_cell_length_c                    58.047789322882224 
_cell_angle_alpha                 88.17469785431555 
_cell_angle_beta                  91.696244819466 
_cell_angle_gamma                 120.64124486845405 
loop_ 
_atom_site_label 
_atom_site_type_symbol 
_atom_site_fract_x 
_atom_site_fract_y 
_atom_site_fract_z 
_atom_site_charge 
C1          C  0.23165543  0.26502321  0.06585774     0.85700
C2          C  0.20746947  0.23746389  0.08201121    -0.54500
C3          C  0.22216320  0.22548648  0.09694116     0.08700
C4          C  0.26070493  0.24329973  0.09505686     0.19600
C5          C  0.25732226  0.29159612  0.08247841    -0.55200
C6          C  0.27295221  0.28046985  0.09750582     0.08800
C7          C  0.25208233  0.25233140  0.05474339    -0.54800
C8          C  0.26651274  0.24050203  0.06964015     0.09300
H9          H  0.18072751  0.22803086  0.08167482     0.13800
H10         H  0.27290858  0.23377481  0.10717026    -0.00400
H11         H  0.26496161  0.31744661  0.08169826     0.14200
H12         H  0.25472668  0.25227692  0.03617695     0.13900
C13         C  0.05008544  0.26753426  0.06885512     0.85700
C14         C  0.05025885  0.29170152  0.08588240    -0.54500
C15         C  0.02563058  0.27786059  0.10186115     0.08700
C16         C  0.50294851  0.23962146  0.09983989     0.19600
C17         C  0.05188810  0.24089717  0.08401566    -0.55200
C18         C  0.02711518  0.22598674  0.10014765     0.08800
C19         C  0.01446561  0.24850357  0.05908129    -0.54800
C20         C  0.49015312  0.23459010  0.07477997     0.09300
H21         H  0.06689470  0.31820884  0.08411806     0.13800
H22         H  0.48264374  0.22782829  0.11265181    -0.00400
H23         H  0.06829943  0.23147612  0.08095076     0.14200
H24         H  0.00873295  0.24581913  0.04067114     0.13900
C25         C  0.23178549  0.45157167  0.06957654     0.85700
C26         C  0.25818296  0.45101780  0.08574335    -0.54500
C27         C  0.27239469  0.47604204  0.10121658     0.08700
C28         C  0.25660049  0.99892771  0.09961590     0.19600
C29         C  0.20556963  0.44956140  0.08646859    -0.55200
C30         C  0.21815570  0.47438313  0.10221562     0.08800
C31         C  0.24776944  0.48635007  0.05958682    -0.54800
C32         C  0.26051176  0.01124577  0.07445861     0.09300
H33         H  0.26572485  0.43280904  0.08477527     0.13800
H34         H  0.26722826  0.01909290  0.11228795    -0.00400
H35         H  0.17911868  0.43146095  0.08575240     0.14200
H36         H  0.24891250  0.99233673  0.04054407     0.13900
O37         O  0.21300739  0.38015755  0.91926992    -0.82600
C38         C  0.10852950  0.30467570  0.97854242     0.96800
O39         O  0.10824061  0.32621144  0.96502505    -0.71700
O40         O  0.16314185  0.37962619  0.97177922    -0.75300
Al41       Al  0.14323247  0.35720421  0.94476188     1.49000
C42         C  0.19304035  0.39418581  0.97831585     0.92100
O43         O  0.21076035  0.33822113  0.97543120    -0.81500
O44         O  0.16466250  0.29165887  0.91868492    -0.75000
Al45       Al  0.21019070  0.35834234  0.94720090     1.90100
O46         O  0.17538909  0.28746844  0.96608828    -0.74100
O47         O  0.10794896  0.28654969  0.92608235    -0.74000
O48         O  0.12228174  0.28906230  0.97273806    -0.79600
O49         O  0.12059739  0.33705042  0.91773321    -0.77800
O50         O  0.16578747  0.33594857  0.94585003    -1.14000
O51         O  0.17394757  0.39216897  0.92434499    -0.73100
C52         C  0.19727263  0.39406368  0.91238828     0.97600
C53         C  0.19557886  0.30803899  0.98058294     0.94000
Al54       Al  0.14412326  0.29206174  0.94583670     1.55600
O55         O  0.21469579  0.39372212  0.96585725    -0.77800
C56         C  0.10543217  0.30713055  0.91302117     0.98100
C57         C  0.19549098  0.30658818  0.91481421     0.93000
O58         O  0.21586685  0.32803891  0.92877246    -0.83100
C59         C  0.17649283  0.14153985  0.12387140     0.79500
N60         N  0.20072859  0.16875618  0.11246094    -0.78800
C61         C  0.20103594  0.19781232  0.11271019     0.81900
N62         N  0.17726448  0.19962562  0.12441810    -0.78800
C63         C  0.15311904  0.17307804  0.13586472     0.82000
N64         N  0.15270745  0.14397691  0.13556537    -0.80500
C65         C  0.17516880  0.01632202  0.12401801     0.79500
N66         N  0.14782944  0.99030365  0.13357841    -0.78800
C67         C  0.14337300  0.45930905  0.13511197     0.81900
N68         N  0.16677985  0.45427115  0.12541197    -0.78800
C69         C  0.19461851  0.98024373  0.11503176     0.82000
N70         N  0.19872601  0.01111512  0.11485990    -0.80500
C71         C  0.48237098  0.32020622  0.12215623     0.79500
N72         N  0.50786527  0.34588019  0.13327310    -0.78800
C73         C  0.03857164  0.34937313  0.13597367     0.81900
N74         N  0.04412654  0.32641457  0.12662613    -0.78800
C75         C  0.01850511  0.29984776  0.11540357     0.82000
N76         N  0.48776085  0.29692591  0.11327148    -0.80500
C77         C  0.36012779  0.32676343  0.12094246     0.79500
N78         N  0.33125820  0.30253129  0.11121606    -0.78800
C79         C  0.30283819  0.30410279  0.11114248     0.81900
N80         N  0.30316556  0.32971651  0.12150965    -0.78800
C81         C  0.33143081  0.35380136  0.13187590     0.82000
N82         N  0.35992889  0.35221728  0.13152744    -0.80500
C83         C  0.30559080  0.38848619  0.18078155     0.85700
C84         C  0.30335983  0.41414733  0.16483823    -0.54500
C85         C  0.32780735  0.42888369  0.14870822     0.08700
C86         C  0.35198060  0.41501497  0.14911883     0.19600
C87         C  0.30381537  0.36360003  0.16361852    -0.55200
C88         C  0.32847674  0.37670407  0.14747884     0.08800
C89         C  0.34127841  0.40585181  0.19011414    -0.54800
C90         C  0.36544081  0.42017822  0.17411870     0.09300
H91         H  0.28439329  0.42088422  0.16653840     0.13800
H92         H  0.37185844  0.42633234  0.13598508    -0.00400
H93         H  0.28475848  0.33782248  0.16361948     0.14200
H94         H  0.34717878  0.40814246  0.20850566     0.13900
C95         C  0.11496718  0.20116605  0.18140598     0.85700
C96         C  0.14172598  0.20280945  0.16535348    -0.54500
C97         C  0.12969740  0.17745737  0.15004042     0.08700
C98         C  0.09164566  0.15267620  0.15191730     0.19600
C99         C  0.08762350  0.19930892  0.16524119    -0.55200
C100        C  0.07480780  0.17413378  0.14997216     0.08800
C101        C  0.10020773  0.16674341  0.19227827    -0.54800
C102        C  0.08847234  0.14160428  0.17732460     0.09300
H103        H  0.16829801  0.21969742  0.16716611     0.13800
H104        H  0.08178022  0.13209889  0.13960522    -0.00400
H105        H  0.07829743  0.21618766  0.16636720     0.14200
H106        H  0.10042850  0.16253791  0.21081606     0.13900
C107        C  0.07581148  0.41669426  0.18124863     0.85700
C108        C  0.09900208  0.44314036  0.16373884    -0.54500
C109        C  0.11418063  0.43313033  0.14861708     0.08700
C110        C  0.10258593  0.39565726  0.15186390     0.19600
C111        C  0.05047717  0.38856816  0.16662551    -0.55200
C112        C  0.06327414  0.37686961  0.15110156     0.08800
C113        C  0.09835386  0.40551104  0.19228666    -0.54800
C114        C  0.11158820  0.39358956  0.17755955     0.09300
H115        H  0.10622941  0.46879235  0.16482642     0.13800
H116        H  0.11388626  0.38646871  0.13973854    -0.00400
H117        H  0.02384153  0.37882111  0.16849839     0.14200
H118        H  0.10372179  0.40692599  0.21071641     0.13900
O119        O  0.22871315  0.38154992  0.31712400    -0.82600
C120        C  0.14754929  0.27045890  0.26790085     0.96800
O121        O  0.17782588  0.28610632  0.27406276    -0.71700
O122        O  0.23333892  0.33951539  0.28255082    -0.75300
Al123      Al  0.19565251  0.30964716  0.30144166     1.49000
C124        C  0.23539742  0.36066969  0.26766949     0.92100
O125        O  0.16476530  0.37552175  0.27093754    -0.81500
O126        O  0.12146350  0.33952955  0.31027236    -0.75000
Al127      Al  0.19447845  0.37407093  0.29444001     1.90100
O128        O  0.12855639  0.32355098  0.26541034    -0.74100
O129        O  0.12511303  0.28921280  0.32470521    -0.74000
O130        O  0.12572658  0.27053023  0.28032412    -0.79600
O131        O  0.16301563  0.27514577  0.32138655    -0.77800
O132        O  0.17296575  0.33048571  0.29717481    -1.14000
O133        O  0.21527891  0.33185283  0.32889169    -0.73100
C134        C  0.22936867  0.36226623  0.33255391     0.97600
C135        C  0.14442580  0.35263827  0.25777468     0.94000
Al136      Al  0.12856685  0.30753421  0.29530388     1.55600
O137        O  0.21870442  0.37442242  0.26971237    -0.77800
C138        C  0.13934246  0.27424133  0.33235043     0.98100
C139        C  0.14161639  0.36283424  0.32310396     0.93000
O140        O  0.17229143  0.37793497  0.31908848    -0.83100
C141        C  0.49000997  0.13901471  0.12255364     0.79500
N142        N  0.49276344  0.16716084  0.11292848    -0.78800
C143        C  0.02231413  0.19622081  0.11334718     0.81900
N144        N  0.04912604  0.19715268  0.12405038    -0.78800
C145        C  0.04690371  0.16975467  0.13427547     0.82000
N146        N  0.01718047  0.14065054  0.13337994    -0.80500
C147        C  0.36051204  0.01463391  0.12355254     0.79500
N148        N  0.35962947  0.98738790  0.13340085    -0.78800
C149        C  0.33051075  0.45718514  0.13453592     0.81900
N150        N  0.30217121  0.45476271  0.12512147    -0.78800
C151        C  0.30230762  0.48129420  0.11502500     0.82000
N152        N  0.33178278  0.01158356  0.11400725    -0.80500
C153        C  0.44513717  0.37730799  0.51238141     0.85700
C154        C  0.47127642  0.37768742  0.49641623    -0.54500
C155        C  0.45832977  0.35184615  0.48150798     0.08700
C156        C  0.41976250  0.32790908  0.48378488     0.19600
C157        C  0.41950041  0.37720614  0.49522951    -0.55200
C158        C  0.40456401  0.35065480  0.48111328     0.08800
C159        C  0.42815570  0.34326239  0.52377676    -0.54800
C160        C  0.41549730  0.31759412  0.50939299     0.09300
H161        H  0.49772380  0.39607333  0.49698670     0.13800
H162        H  0.40889106  0.30676911  0.47191577    -0.00400
H163        H  0.41345965  0.39653511  0.49415515     0.14200
H164        H  0.42707041  0.33958451  0.54243264     0.13900
C165        C  0.41421375  0.09141630  0.51682870     0.85700
C166        C  0.43753243  0.11725102  0.49933851    -0.54500
C167        C  0.45041804  0.10609864  0.48327526     0.08700
C168        C  0.43750525  0.06829960  0.48620752     0.19600
C169        C  0.38743316  0.06403816  0.50222172    -0.55200
C170        C  0.39861630  0.05135780  0.48611869     0.08800
C171        C  0.43568068  0.07837257  0.52705682    -0.54800
C172        C  0.44652926  0.06479490  0.51170299     0.09300
H173        H  0.44573870  0.14314117  0.50059794     0.13800
H174        H  0.44734954  0.05834880  0.47352468    -0.00400
H175        H  0.36112164  0.05520831  0.50491059     0.14200
H176        H  0.44005962  0.07761886  0.54551751     0.13900
C177        C  0.12802215  0.06221835  0.51307111     0.85700
C178        C  0.13015458  0.08907798  0.49681229    -0.54500
C179        C  0.15568652  0.10160177  0.48158779     0.08700
C180        C  0.17717603  0.08457693  0.48368098     0.19600
C181        C  0.12581159  0.03534386  0.49725778    -0.55200
C182        C  0.15147443  0.04658269  0.48184560     0.08800
C183        C  0.16288424  0.07642244  0.52403038    -0.54800
C184        C  0.18859930  0.08847128  0.50925584     0.09300
H185        H  0.11331758  0.09860806  0.49805361     0.13800
H186        H  0.19812128  0.09424444  0.47139028    -0.00400
H187        H  0.10850359  0.00920857  0.49975692     0.14200
H188        H  0.16708646  0.07666220  0.54259341     0.13900
O189        O  0.04326963  0.04713697  0.65926003    -0.82600
C190        C  0.47825400  0.43927893  0.60136840     0.96800
O191        O  0.50228736  0.44405456  0.61450058    -0.71700
O192        O  0.05086557  0.99945931  0.60656617    -0.75300
Al193      Al  0.02924053  0.48091481  0.63398716     1.49000
C194        C  0.06476147  0.02939763  0.60101994     0.92100
O195        O  0.00915142  0.04123336  0.59858537    -0.81500
O196        O  0.45570475  0.99979957  0.65335028    -0.75000
Al197      Al  0.02573570  0.04343592  0.62885993     1.90100
O198        O  0.45702816  0.00238170  0.60487328    -0.74100
O199        O  0.45657004  0.44644132  0.65403427    -0.74000
O200        O  0.46037018  0.45097743  0.60611197    -0.79600
O201        O  0.00814864  0.45841485  0.66108679    -0.77800
O202        O  0.00470196  0.99954987  0.63132690    -1.14000
O203        O  0.06204719  0.01345887  0.65414170    -0.73100
C204        C  0.05931964  0.03353776  0.66669064     0.97600
C205        C  0.47935311  0.02308818  0.59124565     0.94000
Al206      Al  0.46064831  0.47658271  0.62937904     1.55600
O207        O  0.06533107  0.04934082  0.61518375    -0.77800
C208        C  0.47813541  0.44504156  0.66710359     0.98100
C209        C  0.46766585  0.03021354  0.65403501     0.93000
O210        O  0.49147071  0.04926011  0.64118869    -0.83100
C211        C  0.19451856  0.00347634  0.46149700     0.79500
N212        N  0.18907178  0.02664862  0.47055051    -0.78800
C213        C  0.15764922  0.02261792  0.46957541     0.81900
N214        N  0.13171506  0.99518017  0.45906806    -0.78800
C215        C  0.13786936  0.47278062  0.44947794     0.82000
N216        N  0.16911329  0.47772528  0.45111586    -0.80500
C217        C  0.31641974  0.49743191  0.45943907     0.79500
N218        N  0.32066325  0.47456145  0.44865371    -0.78800
C219        C  0.35137810  0.47713000  0.44876719     0.81900
N220        N  0.37806317  0.50306468  0.45985962    -0.78800
C221        C  0.37294805  0.02449275  0.47113321     0.82000
N222        N  0.34236063  0.02132890  0.47038888    -0.80500
C223        C  0.00124868  0.18675607  0.45370060     0.79500
N224        N  0.97678845  0.16025608  0.46488236    -0.78800
C225        C  0.97615406  0.13126729  0.46722394     0.81900
N226        N  0.00082414  0.12844377  0.45730515    -0.78800
C227        C  0.02615624  0.15507518  0.44579310     0.82000
N228        N  0.02625504  0.18413343  0.44418259    -0.80500
C229        C  0.49697331  0.30845196  0.45545236     0.79500
N230        N  0.47491340  0.31427406  0.46620702    -0.78800
C231        C  0.48066755  0.34569869  0.46735289     0.81900
N232        N  0.50876784  0.37154558  0.45746993    -0.78800
C233        C  0.03059268  0.36547701  0.44649841     0.82000
N234        N  0.02425274  0.33413432  0.44607732    -0.80500
C235        C  0.31772293  0.31365593  0.45661626     0.79500
N236        N  0.34603573  0.31596291  0.46632758    -0.78800
C237        C  0.37527857  0.34549578  0.46676901     0.81900
N238        N  0.37597299  0.37251535  0.45736338    -0.78800
C239        C  0.34836583  0.37105651  0.44770496     0.82000
N240        N  0.31905009  0.34148554  0.44750408    -0.80500
C241        C  0.19068015  0.18744444  0.45766417     0.79500
N242        N  0.16227270  0.18495149  0.44802218    -0.78800
C243        C  0.13315197  0.15533348  0.44749927     0.81900
N244        N  0.13267988  0.12829945  0.45679239    -0.78800
C245        C  0.16045490  0.13004109  0.46660742     0.82000
N246        N  0.18954810  0.15978264  0.46688330    -0.80500
C247        C  0.10340339  0.40471156  0.40434342     0.85700
C248        C  0.12716895  0.42999783  0.42153658    -0.54500
C249        C  0.11384018  0.44428911  0.43466687     0.08700
C250        C  0.07534314  0.42885085  0.43016532     0.19600
C251        C  0.07627330  0.37921518  0.41996468    -0.55200
C252        C  0.06032769  0.39065669  0.43316230     0.08800
C253        C  0.08698543  0.42070091  0.39103863    -0.54800
C254        C  0.07280562  0.43366414  0.40382254     0.09300
H255        H  0.15264432  0.43545224  0.42355328     0.13800
H256        H  0.06339430  0.43921288  0.44063680    -0.00400
H257        H  0.07046059  0.35384486  0.42074839     0.14200
H258        H  0.08681852  0.42202589  0.37226084     0.13900
C259        C  0.06497663  0.12801123  0.40055398     0.85700
C260        C  0.09001998  0.12608381  0.41759986    -0.54500
C261        C  0.10360359  0.15060570  0.43355138     0.08700
C262        C  0.08923990  0.17425354  0.43155730     0.19600
C263        C  0.03832915  0.12703597  0.41588248    -0.55200
C264        C  0.05031171  0.15094373  0.43203872     0.08800
C265        C  0.08525836  0.16287417  0.39085725    -0.54800
C266        C  0.09659983  0.18710433  0.40641269     0.09300
H267        H  0.09926653  0.10928501  0.41603335     0.13800
H268        H  0.09941815  0.19413534  0.44443280    -0.00400
H269        H  0.01178090  0.10964233  0.41337981     0.14200
H270        H  0.08950959  0.16841945  0.37250175     0.13900
C271        C  0.38017280  0.44059702  0.40229148     0.85700
C272        C  0.38210184  0.46640902  0.41906144    -0.54500
C273        C  0.35635803  0.45413368  0.43441963     0.08700
C274        C  0.33110606  0.41615687  0.43189219     0.19600
C275        C  0.37943704  0.41414607  0.41855301    -0.55200
C276        C  0.35327392  0.40001260  0.43340897     0.08800
C277        C  0.34539416  0.42564900  0.39153985    -0.54800
C278        C  0.31984621  0.41271827  0.40640108     0.09300
H279        H  0.40112047  0.49231725  0.41870965     0.13800
H280        H  0.31006456  0.40552806  0.44414824    -0.00400
H281        H  0.39810855  0.40688739  0.41830985     0.14200
H282        H  0.34105046  0.42480986  0.37295864     0.13900
O283        O  0.06257102  0.05225423  0.26601891    -0.82600
C284        C  0.44691811  0.47741271  0.31374929     0.96800
O285        O  0.46473983  0.50689880  0.30733341    -0.71700
O286        O  0.02186256  0.05830549  0.29988193    -0.75300
Al287      Al  0.48967807  0.02301757  0.28060031     1.49000
C288        C  0.03993039  0.05632431  0.31589134     0.92100
O289        O  0.04990338  0.48355370  0.30872288    -0.81500
O290        O  0.01109518  0.44462228  0.27108032    -0.75000
Al291      Al  0.05164169  0.01602641  0.28719244     1.90100
O292        O  0.99681905  0.45185896  0.31617588    -0.74100
O293        O  0.46361298  0.45345497  0.25629533    -0.74000
O294        O  0.44506531  0.45472673  0.30150883    -0.79600
O295        O  0.45352762  0.49341783  0.26023380    -0.77800
O296        O  0.00713912  0.49786682  0.28462063    -1.14000
O297        O  0.01350887  0.04197670  0.25354235    -0.73100
C298        C  0.04423691  0.05432245  0.25032908     0.97600
C299        C  0.02699249  0.46411412  0.32233391     0.94000
Al300      Al  0.48104580  0.45431285  0.28617199     1.55600
O301        O  0.05338648  0.03935108  0.31323171    -0.77800
C302        C  0.45209487  0.47081673  0.24816793     0.98100
C303        C  0.03456283  0.46338386  0.25766166     0.93000
O304        O  0.05225072  0.49368366  0.26145011    -0.83100
C305        C  0.39386082  0.29626164  0.73565556     0.85700
C306        C  0.41494410  0.29213386  0.75487128    -0.54500
C307        C  0.43049486  0.31780809  0.76975271     0.08700
C308        C  0.41978540  0.34407969  0.76565625     0.19600
C309        C  0.36748426  0.29892901  0.74928108    -0.55200
C310        C  0.38049954  0.32384234  0.76498345     0.08800
C311        C  0.41571201  0.33052377  0.72534989    -0.54800
C312        C  0.42943164  0.35536692  0.74046088     0.09300
H313        H  0.41838335  0.27112464  0.75625146     0.13800
H314        H  0.43098349  0.36448289  0.77813308    -0.00400
H315        H  0.34075515  0.28208140  0.74741025     0.14200
H316        H  0.42021627  0.33500223  0.70691639     0.13900
C317        C  0.20750349  0.10931807  0.73566375     0.85700
C318        C  0.21096110  0.13394415  0.75384172    -0.54500
C319        C  0.18505132  0.12173551  0.76905956     0.08700
C320        C  0.15904742  0.08429169  0.76590352     0.19600
C321        C  0.20559604  0.08081643  0.75058190    -0.55200
C322        C  0.18008173  0.06693905  0.76600156     0.08800
C323        C  0.17256066  0.09571436  0.72541471    -0.54800
C324        C  0.14742516  0.08266727  0.74072838     0.09300
H325        H  0.23137205  0.15921394  0.75440228     0.13800
H326        H  0.13832208  0.07362036  0.77841876    -0.00400
H327        H  0.22329198  0.07236529  0.74955884     0.14200
H328        H  0.16772230  0.09497195  0.70690336     0.13900
C329        C  0.42632192  0.07727310  0.73017682     0.85700
C330        C  0.45272910  0.09883559  0.74794721    -0.54500
C331        C  0.44212527  0.11238242  0.76371149     0.08700
C332        C  0.40408575  0.10031196  0.76140448     0.19600
C333        C  0.39875341  0.05054537  0.74518714    -0.55200
C334        C  0.38640565  0.06186659  0.76147170     0.08800
C335        C  0.41165923  0.09731647  0.72041559    -0.54800
C336        C  0.40029343  0.10963760  0.73626344     0.09300
H337        H  0.47800123  0.10334309  0.74795595     0.13800
H338        H  0.39473393  0.11038276  0.77436283    -0.00400
H339        H  0.39002625  0.02455305  0.74338971     0.14200
H340        H  0.41037071  0.10163420  0.70197468     0.13900
O341        O  0.38744720  0.22563237  0.59789918    -0.82600
C342        C  0.27434979  0.14044236  0.64675995     0.96800
O343        O  0.28900999  0.17010913  0.64012450    -0.71700
O344        O  0.34181140  0.22638508  0.63292653    -0.75300
Al345      Al  0.31388373  0.18927403  0.61322140     1.49000
C346        C  0.36388471  0.22960623  0.64767167     0.92100
O347        O  0.38508839  0.16411008  0.64332145    -0.81500
O348        O  0.35037693  0.12052766  0.60663944    -0.75000
Al349      Al  0.38139817  0.19231545  0.62008893     1.90100
O350        O  0.33307131  0.12814940  0.65085784    -0.74100
O351        O  0.29723287  0.11981293  0.59071665    -0.74000
O352        O  0.27672549  0.11965960  0.63506800    -0.79600
O353        O  0.28130571  0.15624956  0.59271237    -0.77800
O354        O  0.33710127  0.16912686  0.61780866    -1.14000
O355        O  0.33683064  0.21064079  0.58601452    -0.73100
C356        C  0.36784401  0.22621588  0.58266412     0.97600
C357        C  0.36301513  0.14530241  0.65760822     0.94000
Al358      Al  0.31605196  0.12538197  0.62059305     1.55600
O359        O  0.38040176  0.21568053  0.64480537    -0.77800
C360        C  0.28150578  0.13304428  0.58230462     0.98100
C361        C  0.37212091  0.14017738  0.59249034     0.93000
O362        O  0.38607537  0.17072164  0.59517582    -0.83100
C363        C  0.33176851  0.48191743  0.79018862     0.79500
N364        N  0.30822718  0.48666236  0.80001244    -0.78800
C365        C  0.31072727  0.01728685  0.79923636     0.81900
N366        N  0.33684446  0.04261839  0.78743681    -0.78800
C367        C  0.35933170  0.03717519  0.77680370     0.82000
N368        N  0.35634190  0.50722298  0.77820599    -0.80500
C369        C  0.33055579  0.35647434  0.79167089     0.79500
N370        N  0.30784811  0.32899020  0.80354314    -0.78800
C371        C  0.30952622  0.30103625  0.80382461     0.81900
N372        N  0.33422054  0.30058187  0.79218511    -0.78800
C373        C  0.35726088  0.32755670  0.78021363     0.82000
N374        N  0.35538865  0.35556040  0.78002549    -0.80500
C375        C  0.14448726  0.48063204  0.79113715     0.79500
N376        N  0.17289533  0.48371604  0.80152934    -0.78800
C377        C  0.20245796  0.01405320  0.80146500     0.81900
N378        N  0.20324187  0.04047195  0.79085896    -0.78800
C379        C  0.17561281  0.03832377  0.78064596     0.82000
N380        N  0.14634239  0.50800140  0.78058887    -0.80500
C381        C  0.01723048  0.35135398  0.79475974     0.79500
N382        N  0.01471377  0.32265362  0.80328118    -0.78800
C383        C  0.48480956  0.29326611  0.80230858     0.81900
N384        N  0.45762039  0.29303423  0.79277912    -0.78800
C385        C  0.45924986  0.32094831  0.78419166     0.82000
N386        N  0.98916723  0.35006312  0.78527589    -0.80500
C387        C  0.15086183  0.17122127  0.79296285     0.79500
N388        N  0.17875250  0.19551204  0.80355006    -0.78800
C389        C  0.20760300  0.19482667  0.80438497     0.81900
N390        N  0.20863548  0.16972016  0.79428533    -0.78800
C391        C  0.18115977  0.14517084  0.78354059     0.82000
N392        N  0.15212155  0.14586007  0.78310504    -0.80500
C393        C  0.02350715  0.16794531  0.79258565     0.79500
N394        N  0.01817107  0.19145895  0.80125931    -0.78800
C395        C  0.98726472  0.18838017  0.79917129     0.81900
N396        N  0.46195229  0.16183659  0.78797136    -0.78800
C397        C  0.46742873  0.13897700  0.77863783     0.82000
N398        N  0.99811534  0.14231575  0.78135271    -0.80500
C399        C  0.27678884  0.23322196  0.85062633     0.85700
C400        C  0.25065290  0.20679491  0.83452287    -0.54500
C401        C  0.23622377  0.21834461  0.81888395     0.08700
C402        C  0.24923223  0.25585142  0.82089179     0.19600
C403        C  0.30177926  0.26058331  0.83460200    -0.55200
C404        C  0.28784002  0.27276076  0.81916480     0.08800
C405        C  0.25698079  0.24719202  0.86135406    -0.54800
C406        C  0.24340778  0.25964609  0.84626345     0.09300
H407        H  0.24138599  0.18065863  0.83649568     0.13800
H408        H  0.23761841  0.26560146  0.80844026    -0.00400
H409        H  0.32858228  0.27038888  0.83597028     0.14200
H410        H  0.25409341  0.24769920  0.87984812     0.13900
C411        C  0.27499946  0.04736881  0.84546331     0.85700
C412        C  0.30076856  0.04915628  0.82823818    -0.54500
C413        C  0.28784489  0.02380016  0.81281679     0.08700
C414        C  0.24968442  0.49818938  0.81558663     0.19600
C415        C  0.24658422  0.04541759  0.83030806    -0.55200
C416        C  0.23249839  0.01991218  0.81529542     0.08800
C417        C  0.26097852  0.01291641  0.85622639    -0.54800
C418        C  0.24791692  0.48716560  0.84087241     0.09300
H419        H  0.32745901  0.06575874  0.82959536     0.13800
H420        H  0.23869272  0.47746683  0.80336018    -0.00400
H421        H  0.23709781  0.06203603  0.83226193     0.14200
H422        H  0.26131732  0.00845072  0.87472389     0.13900
C423        C  0.45249950  0.21885413  0.84446573     0.85700
C424        C  0.45278500  0.24643733  0.82914119    -0.54500
C425        C  0.97958433  0.26286511  0.81491157     0.08700
C426        C  0.00285025  0.24799358  0.81583992     0.19600
C427        C  0.45261178  0.19549677  0.82679287    -0.55200
C428        C  0.97933981  0.21004267  0.81234759     0.08800
C429        C  0.98719025  0.23523499  0.85581503    -0.54800
C430        C  0.01314811  0.25019843  0.84124930     0.09300
H431        H  0.43392935  0.25339929  0.82930139     0.13800
H432        H  0.02437663  0.26025749  0.80400409    -0.00400
H433        H  0.43427258  0.16938578  0.82646618     0.14200
H434        H  0.99107723  0.23641932  0.87444415     0.13900
O435        O  0.39859621  0.21090147  0.98784897    -0.82600
C436        C  0.30965434  0.10678673  0.93539973     0.96800
O437        O  0.33999387  0.12016540  0.94115411    -0.71700
O438        O  0.39590099  0.17241651  0.94884683    -0.75300
Al439      Al  0.36091201  0.14076885  0.96895166     1.49000
C440        C  0.39457223  0.19342991  0.93530206     0.92100
O441        O  0.32891853  0.21134230  0.95180126    -0.81500
O442        O  0.29034117  0.17065271  0.98828868    -0.75000
Al443      Al  0.36115234  0.20595833  0.96972329     1.90100
O444        O  0.29302977  0.16126895  0.94120037    -0.74100
O445        O  0.29233810  0.11774326  0.99623126    -0.74000
O446        O  0.28889876  0.10561633  0.94952662    -0.79600
O447        O  0.33013552  0.10475134  0.98897925    -0.77800
O448        O  0.33883271  0.16226150  0.96933455    -1.14000
O449        O  0.38415663  0.16010227  0.99648573    -0.73100
C450        C  0.39969798  0.19012160  0.00151868     0.97600
C451        C  0.30841926  0.19177450  0.93710159     0.94000
Al452      Al  0.29440266  0.14038809  0.96887617     1.55600
O453        O  0.38077597  0.20871034  0.94170356    -0.77800
C454        C  0.30757836  0.10286531  0.00185416     0.98100
C455        C  0.31185625  0.19184399  0.00187830     0.93000
O456        O  0.34249194  0.20591516  0.99758124    -0.83100
C457        C  0.41521440  0.22375903  0.87282309    -0.21100
C458        C  0.42768127  0.20439596  0.86450480    -0.07600
C459        C  0.42701326  0.17970042  0.87982302     0.13200
C460        C  0.41644605  0.17712414  0.90266232    -0.21100
C461        C  0.40687760  0.19855467  0.91119895    -0.07600
C462        C  0.40610499  0.22215243  0.89577744     0.13200
C463        C  0.39738283  0.24728207  0.90318741    -0.24500
H464        H  0.41514152  0.24278275  0.86221665     0.14500
H465        H  0.41609202  0.15831182  0.91407805     0.14500
C466        C  0.43900523  0.15683898  0.87299158    -0.24400
H467        H  0.40027220  0.26505494  0.88913496     0.04800
H468        H  0.41403683  0.26180581  0.91767273     0.08000
H469        H  0.37097062  0.23470433  0.90836176     0.08000
H470        H  0.96511184  0.17096346  0.86732813     0.08000
H471        H  0.42266715  0.14043805  0.85915493     0.08000
H472        H  0.43804030  0.14054906  0.88757082     0.04700
C473        C  0.25876619  0.06303303  0.88158422    -0.21100
C474        C  0.28433710  0.07137399  0.86551283    -0.07600
C475        C  0.31694112  0.09686424  0.87141511     0.13200
C476        C  0.32431712  0.10680267  0.89447443    -0.21100
C477        C  0.29941357  0.09453222  0.91143977    -0.07600
C478        C  0.26574473  0.07392153  0.90436602     0.13200
C479        C  0.23696408  0.06207335  0.92065387    -0.24500
H480        H  0.23314313  0.04521649  0.87680721     0.14500
H481        H  0.34971910  0.12537244  0.89900010     0.14500
C482        C  0.34328131  0.11659280  0.85384552    -0.24400
H483        H  0.21258616  0.04503542  0.91220299     0.04800
H484        H  0.23550213  0.08338355  0.92674063     0.08000
H485        H  0.24030129  0.04860545  0.93555434     0.08000
H486        H  0.33223469  0.11402616  0.83629900     0.08000
H487        H  0.36248969  0.10925813  0.85440671     0.08000
H488        H  0.35564267  0.14327214  0.85767128     0.04700
C489        C  0.30909382  0.24691804  0.88776447    -0.21100
C490        C  0.29372794  0.22389556  0.86997430    -0.07600
C491        C  0.29045828  0.19255002  0.87328385     0.13200
C492        C  0.29418672  0.18256296  0.89561368    -0.21100
C493        C  0.30395122  0.20404567  0.91433133    -0.07600
C494        C  0.31283357  0.23719363  0.91009694     0.13200
C495        C  0.32480276  0.26223774  0.92894891    -0.24500
H496        H  0.31477144  0.27206314  0.88473515     0.14500
H497        H  0.29079340  0.15814916  0.89818718     0.14500
C498        C  0.28732646  0.17083672  0.85375745    -0.24400
H499        H  0.32794800  0.28611856  0.92259132     0.04800
H500        H  0.34949359  0.26731470  0.93579623     0.08000
H501        H  0.30629178  0.25293078  0.94301764     0.08000
H502        H  0.29161763  0.18370426  0.83678303     0.08000
H503        H  0.26245635  0.14786574  0.85403786     0.08000
H504        H  0.30690824  0.16400630  0.85574855     0.04700
C505        C  0.08600594  0.19893335  0.78910816    -0.21100
C506        C  0.05647973  0.16951911  0.79477780    -0.07600
C507        C  0.05857483  0.14108788  0.80057556     0.13200
C508        C  0.08949701  0.14245437  0.79949384    -0.21100
C509        C  0.11887142  0.17158615  0.79331301    -0.07600
C510        C  0.11710263  0.20036308  0.78829978     0.13200
C511        C  0.14755452  0.23230539  0.78100608    -0.24500
H512        H  0.08456285  0.22065576  0.78456883     0.14500
H513        H  0.09083987  0.12061533  0.80383445     0.14500
C514        C  0.02854816  0.10935823  0.80877239    -0.24400
H515        H  0.14122749  0.25151156  0.77622948     0.04800
H516        H  0.15883258  0.22823389  0.76578445     0.08000
H517        H  0.16624102  0.24203880  0.79530405     0.08000
H518        H  0.00981952  0.09805113  0.79462728     0.08000
H519        H  0.01713665  0.11429281  0.82351851     0.08000
H520        H  0.03545983  0.09092856  0.81466787     0.04700
C521        C  0.05361903  0.40919650  0.77922336    -0.21100
C522        C  0.05041908  0.38397806  0.79449721    -0.07600
C523        C  0.07873268  0.39110357  0.80873269     0.13200
C524        C  0.10850617  0.42239663  0.80714897    -0.21100
C525        C  0.11168590  0.44756663  0.79170163    -0.07600
C526        C  0.08341019  0.44015197  0.77731745     0.13200
C527        C  0.08418104  0.46398722  0.75914899    -0.24500
H528        H  0.03247774  0.40466747  0.76833783     0.14500
H529        H  0.12949430  0.42726145  0.81839548     0.14500
C530        C  0.07771916  0.36659165  0.82639680    -0.24400
H531        H  0.06074311  0.45332508  0.74862582     0.04800
H532        H  0.10503141  0.47053573  0.74726195     0.08000
H533        H  0.08714007  0.48630529  0.76730943     0.08000
H534        H  0.07395315  0.34421088  0.81783833     0.08000
H535        H  0.05721057  0.36017079  0.83854642     0.08000
H536        H  0.10136532  0.37663080  0.83660872     0.04700
C537        C  0.30125971  0.41987315  0.79487692    -0.21100
C538        C  0.33160520  0.44983906  0.79216046    -0.07600
C539        C  0.36150692  0.44850985  0.79063206     0.13200
C540        C  0.35982591  0.41786647  0.79045516    -0.21100
C541        C  0.32951637  0.38788973  0.79236352    -0.07600
C542        C  0.29975175  0.38906738  0.79513188     0.13200
C543        C  0.26605185  0.35815171  0.79773877    -0.24500
H544        H  0.27838780  0.42048688  0.79638407     0.14500
H545        H  0.38278820  0.41739850  0.78902471     0.14500
C546        C  0.39587284  0.47908108  0.78989392    -0.24400
H547        H  0.24553970  0.36369306  0.79829402     0.04800
H548        H  0.26539087  0.34503915  0.81411287     0.08000
H549        H  0.26093182  0.34180413  0.78292943     0.08000
H550        H  0.39909008  0.49541773  0.80432095     0.08000
H551        H  0.39960734  0.49233938  0.77313138     0.08000
H552        H  0.41606514  0.47307959  0.79166856     0.04700
C553        C  0.40963782  0.15847331  0.71554214    -0.21100
C554        C  0.38638926  0.12979872  0.72744736    -0.07600
C555        C  0.35323537  0.11248087  0.71912578     0.13200
C556        C  0.34606815  0.11938616  0.69673848    -0.21100
C557        C  0.37150985  0.14305049  0.68238662    -0.07600
C558        C  0.40344969  0.16424266  0.69252406     0.13200
C559        C  0.43199114  0.19142029  0.67915180    -0.24500
H560        H  0.43495912  0.17228714  0.72245064     0.14500
H561        H  0.32096343  0.10446550  0.69003122     0.14500
C562        C  0.32640568  0.08408708  0.73284368    -0.24400
H563        H  0.45460636  0.20572828  0.69017724     0.04800
H564        H  0.42470324  0.20883192  0.67188128     0.08000
H565        H  0.43897730  0.18081576  0.66505988     0.08000
H566        H  0.32434505  0.09285786  0.74990120     0.08000
H567        H  0.33260821  0.06437228  0.73544249     0.08000
H568        H  0.30162344  0.07318809  0.72396931     0.04700
C569        C  0.23697951  0.09803494  0.70444644    -0.21100
C570        C  0.23144479  0.12146293  0.71507472    -0.07600
C571        C  0.23752659  0.14973558  0.70148404     0.13200
C572        C  0.25014439  0.15409734  0.67915976    -0.21100
C573        C  0.25644934  0.13117270  0.66914426    -0.07600
C574        C  0.24853440  0.10203526  0.68180526     0.13200
C575        C  0.24995328  0.07383415  0.67137106    -0.24500
H576        H  0.22957130  0.07469057  0.71293788     0.14500
H577        H  0.25424163  0.17545936  0.66907739     0.14500
C578        C  0.22950556  0.17513147  0.70939707    -0.24400
H579        H  0.24181705  0.05260880  0.68360587     0.04800
H580        H  0.27566837  0.08157787  0.66625700     0.08000
H581        H  0.23306337  0.06492897  0.65602343     0.08000
H582        H  0.24699351  0.18978758  0.72342823     0.08000
H583        H  0.20313391  0.16324814  0.71491047     0.08000
H584        H  0.23266633  0.19311375  0.69542678     0.04700
C585        C  0.40038251  0.25645169  0.68118156    -0.21100
C586        C  0.37052481  0.24817030  0.66938796    -0.07600
C587        C  0.34715135  0.25393320  0.68013821     0.13200
C588        C  0.35344769  0.26564671  0.70286895    -0.21100
C589        C  0.38297779  0.27267491  0.71529412    -0.07600
C590        C  0.40704863  0.26818876  0.70362675     0.13200
C591        C  0.44094314  0.27681820  0.71366867    -0.24500
H592        H  0.41921572  0.25388964  0.67253992     0.14500
H593        H  0.33597649  0.27140704  0.71018675     0.14500
C594        C  0.31629662  0.24924767  0.66756654    -0.24400
H595        H  0.45718630  0.27514684  0.70077421     0.04800
H596        H  0.43800870  0.25899784  0.72761108     0.08000
H597        H  0.45478519  0.30248724  0.71981930     0.08000
H598        H  0.30072129  0.22341176  0.66222495     0.08000
H599        H  0.32360896  0.26572585  0.65206857     0.08000
H600        H  0.30081258  0.25506208  0.67848391     0.04700
C601        C  0.41415243  0.43640256  0.34409991    -0.21100
C602        C  0.43029721  0.46932365  0.33654262    -0.07600
C603        C  0.43328580  0.49354287  0.35194763     0.13200
C604        C  0.42050499  0.48406743  0.37427397    -0.21100
C605        C  0.40409989  0.45096030  0.38196507    -0.07600
C606        C  0.40173765  0.42681954  0.36642421     0.13200
C607        C  0.38520121  0.39037076  0.37239305    -0.24500
H608        H  0.41193783  0.41774986  0.33254995     0.14500
H609        H  0.42181775  0.50286227  0.38507005     0.14500
C610        C  0.44942248  0.02886230  0.34526812    -0.24400
H611        H  0.38374295  0.37563485  0.35737905     0.04800
H612        H  0.35917733  0.38026309  0.37813121     0.08000
H613        H  0.40014150  0.38608272  0.38575318     0.08000
H614        H  0.43576395  0.53214503  0.32961140     0.08000
H615        H  0.47609724  0.03871364  0.34179138     0.08000
H616        H  0.44828152  0.04383073  0.35922214     0.04700
C617        C  0.05617281  0.07806961  0.37962191    -0.21100
C618        C  0.05070392  0.10446006  0.38039371    -0.07600
C619        C  0.03614810  0.11125259  0.36048303     0.13200
C620        C  0.03473526  0.09656162  0.33955595    -0.21100
C621        C  0.04405115  0.07272836  0.33825343    -0.07600
C622        C  0.05270048  0.06200371  0.35907069     0.13200
C623        C  0.05719384  0.03285416  0.36030906    -0.24500
H624        H  0.06326450  0.06970719  0.39511695     0.14500
H625        H  0.02549909  0.10333231  0.32423603     0.14500
C626        C  0.02271522  0.13447905  0.36010122    -0.24400
H627        H  0.06169794  0.02671962  0.37818934     0.04800
H628        H  0.07919068  0.03822708  0.35003413     0.08000
H629        H  0.03389621  0.01127914  0.35381166     0.08000
H630        H  0.03735985  0.15532745  0.34790691     0.08000
H631        H  0.02330475  0.14470212  0.37706730     0.08000
H632        H  0.99619424  0.12106957  0.35413162     0.04700
C633        C  0.02467269  0.43192170  0.38447302    -0.21100
C634        C  0.05852436  0.45094417  0.39075139    -0.07600
C635        C  0.08050091  0.47627841  0.37556021     0.13200
C636        C  0.06993718  0.47764105  0.35303212    -0.21100
C637        C  0.03638354  0.45774793  0.34598226    -0.07600
C638        C  0.01311691  0.43538121  0.36243557     0.13200
C639        C  0.47661707  0.41465851  0.35710549    -0.24500
H640        H  0.00790029  0.41210113  0.39598853     0.14500
H641        H  0.08822053  0.49544646  0.34112883     0.14500
C642        C  0.11658729  0.49962090  0.38199285    -0.24400
H643        H  0.46251783  0.39826349  0.37184893     0.04800
H644        H  0.47263459  0.39894313  0.34211462     0.08000
H645        H  0.46640418  0.43094694  0.35330473     0.08000
H646        H  0.13309703  0.49587017  0.37060952     0.08000
H647        H  0.12227073  0.49607876  0.40019822     0.08000
H648        H  0.12306566  0.02506512  0.37942767     0.04700
C649        C  0.25622334  0.27945347  0.46442756    -0.21100
C650        C  0.28537065  0.28114107  0.45647270    -0.07600
C651        C  0.28298879  0.25173894  0.44876470     0.13200
C652        C  0.25203940  0.22169704  0.44964147    -0.21100
C653        C  0.22293440  0.21999798  0.45766904    -0.07600
C654        C  0.22530270  0.24937042  0.46540389     0.13200
C655        C  0.19581304  0.24885673  0.47600067    -0.24500
H656        H  0.25785511  0.30174238  0.47049720     0.14500
H657        H  0.25039980  0.19940074  0.44357584     0.14500
C658        C  0.31256946  0.25210745  0.43846303    -0.24400
H659        H  0.20244116  0.27352940  0.48223215     0.04800
H660        H  0.18694712  0.23132850  0.49093960     0.08000
H661        H  0.17511042  0.24121250  0.46324437     0.08000
H662        H  0.33290487  0.25937264  0.45147752     0.08000
H663        H  0.32191526  0.26982687  0.42364327     0.08000
H664        H  0.30588149  0.22746149  0.43213559     0.04700
C665        C  0.48233851  0.22250875  0.47079739    -0.21100
C666        C  0.99999865  0.21795564  0.45325307    -0.07600
C667        C  0.01362956  0.24216353  0.43545289     0.13200
C668        C  0.01014358  0.27006716  0.43620500    -0.21100
C669        C  0.49375798  0.27526857  0.45421696    -0.07600
C670        C  0.47928035  0.25068431  0.47169662     0.13200
C671        C  0.46173153  0.25432829  0.49183544    -0.24500
H672        H  0.47154843  0.20415064  0.48453483     0.14500
H673        H  0.02093391  0.28849623  0.42249916     0.14500
C674        C  0.03162588  0.23890747  0.41546160    -0.24400
H675        H  0.45269542  0.23309771  0.50416724     0.04800
H676        H  0.43964311  0.25570202  0.48562161     0.08000
H677        H  0.47920120  0.27698431  0.50135617     0.08000
H678        H  0.01499058  0.21545851  0.40648725     0.08000
H679        H  0.05467228  0.23945057  0.42176497     0.08000
H680        H  0.03931237  0.25942813  0.40264448     0.04700
C681        C  0.23579921  0.49533403  0.44072552    -0.21100
C682        C  0.22761491  0.00552683  0.46092561    -0.07600
C683        C  0.24918452  0.01329156  0.48026600     0.13200
C684        C  0.27691630  0.00889661  0.47935805    -0.21100
C685        C  0.28415628  0.49718598  0.45963736    -0.07600
C686        C  0.26344846  0.49082126  0.43989369     0.13200
C687        C  0.27065274  0.47996655  0.41777099    -0.24500
H688        H  0.21981932  0.49002372  0.42556671     0.14500
H689        H  0.29343184  0.01510204  0.49430247     0.14500
C690        C  0.24273654  0.02547859  0.50201361    -0.24400
H691        H  0.25260706  0.47721872  0.40379444     0.04800
H692        H  0.26869626  0.45567867  0.42064887     0.08000
H693        H  0.29616806  0.49840349  0.41187086     0.08000
H694        H  0.21765855  0.00715617  0.50867593     0.08000
H695        H  0.24397587  0.04927792  0.49823599     0.08000
H696        H  0.26160491  0.02964593  0.51572687     0.04700
C697        C  0.10462199  0.03333513  0.72272123    -0.21100
C698        C  0.11324589  0.06405329  0.73130734    -0.07600
C699        C  0.09878326  0.08152254  0.72124098     0.13200
C700        C  0.07964335  0.06997107  0.70086463    -0.21100
C701        C  0.07549154  0.04175373  0.69002241    -0.07600
C702        C  0.08675227  0.02223717  0.70192774     0.13200
C703        C  0.08166892  0.99042889  0.69278701    -0.24500
H704        H  0.11651519  0.02051074  0.73033520     0.14500
H705        H  0.06992162  0.08438181  0.69261541     0.14500
C706        C  0.10597321  0.11373662  0.73106910    -0.24400
H707        H  0.09112430  0.97831084  0.70501350     0.04800
H708        H  0.09524465  0.99500764  0.67642582     0.08000
H709        H  0.05469539  0.97306277  0.69017151     0.08000
H710        H  0.13322057  0.13193154  0.73065500     0.08000
H711        H  0.09750550  0.10965113  0.74919145     0.08000
H712        H  0.09277105  0.12441009  0.72119380     0.04700
C713        C  0.41490114  0.03609875  0.69957443    -0.21100
C714        C  0.43831853  0.06577579  0.71026550    -0.07600
C715        C  0.46859632  0.08707967  0.69833217     0.13200
C716        C  0.47729032  0.07486391  0.67978236    -0.21100
C717        C  0.45526760  0.04356254  0.67113238    -0.07600
C718        C  0.42266727  0.02510421  0.67995027     0.13200
C719        C  0.39449830  0.49489545  0.66736540    -0.24500
H720        H  0.38960018  0.02194076  0.70577023     0.14500
H721        H  0.50161685  0.08996600  0.67204246     0.14500
C722        C  0.49134945  0.12319448  0.70354092    -0.24400
H723        H  0.36968211  0.48591011  0.67513933     0.04800
H724        H  0.39945208  0.47434049  0.66858561     0.08000
H725        H  0.39276155  0.50103087  0.64894009     0.08000
H726        H  0.50901981  0.12632472  0.71781217     0.08000
H727        H  0.47679483  0.13510487  0.70747339     0.08000
H728        H  0.50682512  0.13691011  0.68839797     0.04700
C729        C  0.48786557  0.41373287  0.69825103    -0.21100
C730        C  0.46894742  0.42747097  0.68981288    -0.07600
C731        C  0.44329950  0.42527276  0.70376136     0.13200
C732        C  0.43479353  0.40609865  0.72423992    -0.21100
C733        C  0.45097313  0.38882336  0.73084665    -0.07600
C734        C  0.47945654  0.39481216  0.71858891     0.13200
C735        C  0.49892028  0.37808527  0.72496000    -0.24500
H736        H  0.50822160  0.41594247  0.68817960     0.14500
H737        H  0.41283988  0.40136821  0.73356610     0.14500
C738        C  0.42429393  0.44230247  0.69706586    -0.24400
H739        H  0.52574058  0.39695089  0.72739012     0.04800
H740        H  0.49660578  0.36160915  0.71088578     0.08000
H741        H  0.48993930  0.36316185  0.74104026     0.08000
H742        H  0.40976447  0.43172589  0.68094418     0.08000
H743        H  0.44205867  0.46913392  0.69465721     0.08000
H744        H  0.40631906  0.43914353  0.71051857     0.04700
C745        C  0.22735129  0.07892257  0.53294529    -0.21100
C746        C  0.22261369  0.10160109  0.51951192    -0.07600
C747        C  0.24203246  0.13536075  0.52480022     0.13200
C748        C  0.26159737  0.14495705  0.54509089    -0.21100
C749        C  0.26339058  0.12171904  0.55988692    -0.07600
C750        C  0.24756470  0.08845521  0.55296970     0.13200
C751        C  0.24943808  0.06227888  0.56743305    -0.24500
H752        H  0.21177512  0.05289919  0.52934682     0.14500
H753        H  0.27498064  0.17077236  0.54962202     0.14500
C754        C  0.24095335  0.16149926  0.51002599    -0.24400
H755        H  0.23397767  0.03741707  0.55995186     0.04800
H756        H  0.24021561  0.06137946  0.58502886     0.08000
H757        H  0.27564808  0.06768902  0.56844631     0.08000
H758        H  0.26678922  0.18091982  0.50543115     0.08000
H759        H  0.22713257  0.15113800  0.49376300     0.08000
H760        H  0.22894607  0.17277813  0.51945431     0.04700
C761        C  0.11298990  0.07980001  0.54869985    -0.21100
C762        C  0.10325037  0.05464073  0.53243174    -0.07600
C763        C  0.07447295  0.02381322  0.53711765     0.13200
C764        C  0.06254396  0.01656471  0.55971817    -0.21100
C765        C  0.07737392  0.03991532  0.57732855    -0.07600
C766        C  0.10131938  0.07271065  0.57127698     0.13200
C767        C  0.11600801  0.10007162  0.58850680    -0.24500
H768        H  0.13282807  0.10462543  0.54443129     0.14500
H769        H  0.04065636  0.99281439  0.56338827     0.14500
C770        C  0.05369039  0.99977803  0.51868434    -0.24400
H771        H  0.13570338  0.12373274  0.58080144     0.04800
H772        H  0.12755678  0.09357651  0.60320078     0.08000
H773        H  0.09617798  0.10425160  0.59481616     0.08000
H774        H  0.05548194  0.97721044  0.52051925     0.08000
H775        H  0.06092241  0.01081643  0.50114999     0.08000
H776        H  0.02722100  0.49221092  0.52085254     0.04700
C777        C  0.37602922  0.09558017  0.57388869    -0.21100
C778        C  0.38085933  0.12740113  0.57248747    -0.07600
C779        C  0.39111768  0.14518394  0.55126690     0.13200
C780        C  0.40038766  0.13253228  0.53328079    -0.21100
C781        C  0.39918773  0.10214559  0.53548972    -0.07600
C782        C  0.38359145  0.08211203  0.55544727     0.13200
C783        C  0.37395629  0.04635097  0.55827509    -0.24500
H784        H  0.36586214  0.08079516  0.58946816     0.14500
H785        H  0.40775682  0.14647836  0.51727826     0.14500
C786        C  0.39122973  0.17693660  0.54690284    -0.24400
H787        H  0.34690823  0.03123079  0.56221217     0.04800
H788        H  0.38847912  0.04363957  0.57283317     0.08000
H789        H  0.37775353  0.03569933  0.54281116     0.08000
H790        H  0.41067615  0.19636728  0.55781515     0.08000
H791        H  0.36628958  0.17335487  0.55070865     0.08000
H792        H  0.39703631  0.18581220  0.52873335     0.04700
C793        C  0.43358770  0.01540148  0.53353271    -0.21100
C794        C  0.45837196  0.04331807  0.52169738    -0.07600
C795        C  0.49140751  0.05863808  0.53029634     0.13200
C796        C  0.49768432  0.05011852  0.55246822    -0.21100
C797        C  0.47141734  0.02687005  0.56654570    -0.07600
C798        C  0.43907170  0.00801151  0.55633424     0.13200
C799        C  0.40952113  0.98173880  0.56949750    -0.24500
H800        H  0.40821109  0.00336697  0.52664105     0.14500
H801        H  0.52310859  0.06341819  0.55920276     0.14500
C802        C  0.51978248  0.08634395  0.51719697    -0.24400
H803        H  0.38641370  0.96985011  0.55863365     0.04800
H804        H  0.40482592  0.49095218  0.58262757     0.08000
H805        H  0.91449800  0.96229725  0.57592374     0.08000
H806        H  0.53948152  0.08011311  0.51451854     0.08000
H807        H  0.51142296  0.09072767  0.50002036     0.08000
H808        H  0.53062426  0.10938691  0.52715430     0.04700
C809        C  0.42536614  0.28097837  0.53432112    -0.21100
C810        C  0.40247273  0.28449002  0.51998497    -0.07600
C811        C  0.36808672  0.26461890  0.52428182     0.13200
C812        C  0.35761858  0.24420822  0.54405735    -0.21100
C813        C  0.38087447  0.24491329  0.56055373    -0.07600
C814        C  0.41547162  0.26326420  0.55527379     0.13200
C815        C  0.44266425  0.26736484  0.57216570    -0.24500
H816        H  0.45184704  0.29677771  0.53097785     0.14500
H817        H  0.33107179  0.22951613  0.54739196     0.14500
C818        C  0.34264427  0.26706988  0.50909514    -0.24400
H819        H  0.46803676  0.28333155  0.56500565     0.04800
H820        H  0.44033035  0.24333669  0.57678659     0.08000
H821        H  0.44128256  0.27921823  0.58798749     0.08000
H822        H  0.34516119  0.26131006  0.49117494     0.08000
H823        H  0.34673721  0.29237768  0.50965273     0.08000
H824        H  0.31666469  0.24952844  0.51465669     0.04700
C825        C  0.48790323  0.41039279  0.54298469    -0.21100
C826        C  0.45660258  0.40133957  0.53237430    -0.07600
C827        C  0.43229353  0.40281687  0.54604982     0.13200
C828        C  0.44010462  0.41307238  0.56876230    -0.21100
C829        C  0.47118924  0.42235304  0.57902949    -0.07600
C830        C  0.49526853  0.42020225  0.56611039     0.13200
C831        C  0.02785866  0.42621660  0.57677953    -0.24500
H832        H  0.50599085  0.40720356  0.53393154     0.14500
H833        H  0.42117538  0.41364388  0.57886305     0.14500
C834        C  0.39691149  0.39193817  0.53802084    -0.24400
H835        H  0.04312137  0.42230773  0.56430365     0.04800
H836        H  0.02271271  0.40886625  0.59157884     0.08000
H837        H  0.04313265  0.45177736  0.58284402     0.08000
H838        H  0.38382128  0.36612270  0.53208463     0.08000
H839        H  0.39717416  0.40911789  0.52445263     0.08000
H840        H  0.38141409  0.39249246  0.55201293     0.04700
C841        C  0.42270687  0.04694399  0.11852024    -0.21100
C842        C  0.39308673  0.04709097  0.12262066    -0.07600
C843        C  0.39554031  0.07804339  0.12571739     0.13200
C844        C  0.42727145  0.10732414  0.12556878    -0.21100
C845        C  0.45693981  0.10704298  0.12188098    -0.07600
C846        C  0.45417797  0.07634030  0.11735994     0.13200
C847        C  0.48378042  0.07450048  0.10950867    -0.24500
H848        H  0.42108278  0.02361963  0.11539721     0.14500
H849        H  0.42894229  0.13069793  0.12856816     0.14500
C850        C  0.36504088  0.08052441  0.12987899    -0.24400
H851        H  0.47693173  0.04882726  0.10574478     0.04800
H852        H  0.50368584  0.08374283  0.12285487     0.08000
H853        H  0.49381855  0.08966002  0.09352766     0.08000
H854        H  0.35146285  0.06500429  0.14507536     0.08000
H855        H  0.34828229  0.07236300  0.11445384     0.08000
H856        H  0.37174615  0.10626119  0.13326024     0.04700
C857        C  0.09587025  0.36090899  0.37712078    -0.21100
C858        C  0.11783162  0.39225899  0.38641937    -0.07600
C859        C  0.14651011  0.41437725  0.37320629     0.13200
C860        C  0.15224815  0.40411588  0.35232941    -0.21100
C861        C  0.13062864  0.37264924  0.34364563    -0.07600
C862        C  0.10193640  0.35081992  0.35631468     0.13200
C863        C  0.07785250  0.31640448  0.34862985    -0.24500
H864        H  0.07241906  0.34430901  0.38529479     0.14500
H865        H  0.17408551  0.42116375  0.34252074     0.14500
C866        C  0.17122640  0.44939339  0.38000443    -0.24400
H867        H  0.05658108  0.30275886  0.36055499     0.04800
H868        H  0.09158556  0.30308252  0.34855806     0.08000
H869        H  0.06733060  0.31677184  0.33128703     0.08000
H870        H  0.18628028  0.44935559  0.39513166     0.08000
H871        H  0.15827102  0.46305362  0.38342572     0.08000
H872        H  0.18946024  0.46344107  0.36619034     0.04700
C873        C  0.15305582  0.25822666  0.37040755    -0.21100
C874        C  0.12864635  0.25649848  0.35471863    -0.07600
C875        C  0.09460712  0.23873471  0.36103010     0.13200
C876        C  0.08619292  0.22399976  0.38301594    -0.21100
C877        C  0.10973701  0.22079050  0.39686442    -0.07600
C878        C  0.14384628  0.23964501  0.39109540     0.13200
C879        C  0.17009853  0.23790133  0.40577651    -0.24500
H880        H  0.17921778  0.27250793  0.36582166     0.14500
H881        H  0.05993768  0.20852883  0.38712270     0.14500
C882        C  0.06666384  0.23036582  0.34362305    -0.24400
H883        H  0.19563176  0.25444183  0.39902858     0.04800
H884        H  0.16539790  0.21234241  0.40620625     0.08000
H885        H  0.16932976  0.24554428  0.42348336     0.08000
H886        H  0.06952829  0.21753428  0.32892607     0.08000
H887        H  0.06656912  0.25244718  0.33692056     0.08000
H888        H  0.04167526  0.21372060  0.35113946     0.04700
C889        C  0.25097291  0.35262313  0.36985539    -0.21100
C890        C  0.24684070  0.37469561  0.35516219    -0.07600
C891        C  0.25893551  0.40723525  0.36281274     0.13200
C892        C  0.27778860  0.41746301  0.38340495    -0.21100
C893        C  0.28581711  0.39658592  0.39619266    -0.07600
C894        C  0.27053923  0.36325005  0.39004166     0.13200
C895        C  0.27733176  0.33950967  0.40358282    -0.24500
H896        H  0.24067251  0.32724998  0.36486562     0.14500
H897        H  0.29029169  0.44327727  0.38780660     0.14500
C898        C  0.25355944  0.43195831  0.34921071    -0.24400
H899        H  0.26322944  0.31424892  0.39654461     0.04800
H900        H  0.26956132  0.33814969  0.42166442     0.08000
H901        H  0.30434958  0.34785443  0.40303752     0.08000
H902        H  0.22641251  0.42200771  0.34640224     0.08000
H903        H  0.26636583  0.43761162  0.33241854     0.08000
H904        H  0.26377106  0.45558186  0.35840529     0.04700
C905        C  0.06059182  0.45644930  0.19789808    -0.21100
C906        C  0.05930243  0.42605944  0.19960990    -0.07600
C907        C  0.04291955  0.40502028  0.21907634     0.13200
C908        C  0.03521538  0.41791088  0.23782572    -0.21100
C909        C  0.04122152  0.45013554  0.23712712    -0.07600
C910        C  0.05160538  0.46861550  0.21624298     0.13200
C911        C  0.05242534  0.50081522  0.21275883    -0.24500
H912        H  0.06825681  0.47099558  0.18217032     0.14500
H913        H  0.02474010  0.40283067  0.25324309     0.14500
C914        C  0.03243732  0.36884242  0.22041352    -0.24400
H915        H  0.05787020  0.51015177  0.19466356     0.04800
H916        H  0.07243888  0.51975437  0.22371117     0.08000
H917        H  0.02846156  0.99786045  0.21740586     0.08000
H918        H  0.05397183  0.36497416  0.22072278     0.08000
H919        H  0.01555484  0.35557945  0.20573602     0.08000
H920        H  0.51838294  0.35661493  0.23646187     0.04700
C921        C  0.10962261  0.34628797  0.19615793    -0.21100
C922        C  0.13013973  0.37872310  0.18816594    -0.07600
C923        C  0.15942298  0.39969903  0.20091825     0.13200
C924        C  0.16387961  0.39019257  0.22325690    -0.21100
C925        C  0.13999056  0.35975433  0.23307441    -0.07600
C926        C  0.11349636  0.33662943  0.21865780     0.13200
C927        C  0.08767197  0.30253587  0.22698753    -0.24500
H928        H  0.08729541  0.33014433  0.18620918     0.14500
H929        H  0.18543345  0.40742464  0.23337499     0.14500
C930        C  0.18413851  0.43385666  0.19223055    -0.24400
H931        H  0.06840945  0.28864936  0.21353118     0.04800
H932        H  0.07456325  0.30422163  0.24210472     0.08000
H933        H  0.09989227  0.28812523  0.23161486     0.08000
H934        H  0.18462757  0.45243113  0.20378369     0.08000
H935        H  0.17770678  0.43845624  0.17447419     0.08000
H936        H  0.20946633  0.43694296  0.19196481     0.04700
C937        C  0.03441326  0.06689984  0.21022088    -0.21100
C938        C  0.05772375  0.07075731  0.22775318    -0.07600
C939        C  0.09227958  0.08944801  0.22277992     0.13200
C940        C  0.10212391  0.10704959  0.20177089    -0.21100
C941        C  0.07855412  0.10862435  0.18685401    -0.07600
C942        C  0.04449486  0.08597485  0.18997259     0.13200
C943        C  0.01876397  0.08352443  0.17266228    -0.24500
H944        H  0.00795596  0.05032158  0.21281569     0.14500
H945        H  0.12850379  0.12406213  0.19881347     0.14500
C946        C  0.11902619  0.09298571  0.23978137    -0.24400
H947        H  0.49291365  0.06503309  0.17812073     0.04800
H948        H  0.02427118  0.07678367  0.15595027     0.08000
H949        H  0.01964012  0.10743581  0.17094842     0.08000
H950        H  0.11601246  0.06849135  0.24395552     0.08000
H951        H  0.11749793  0.10447008  0.25574920     0.08000
H952        H  0.14451837  0.10890185  0.23279298     0.04700
C953        C  0.09832885  0.21683311  0.21718933    -0.21100
C954        C  0.12375046  0.22575881  0.20091878    -0.07600
C955        C  0.15570102  0.25338520  0.20575001     0.13200
C956        C  0.16276478  0.26632077  0.22804174    -0.21100
C957        C  0.13825880  0.25416801  0.24522390    -0.07600
C958        C  0.10521932  0.22964998  0.23937933     0.13200
C959        C  0.07720822  0.21553795  0.25651380    -0.24500
H960        H  0.07310665  0.19727355  0.21311229     0.14500
H961        H  0.18745152  0.28712796  0.23171519     0.14500
C962        C  0.18141221  0.27234841  0.18760462    -0.24400
H963        H  0.05380765  0.19466675  0.24931812     0.04800
H964        H  0.07143336  0.23465709  0.26136392     0.08000
H965        H  0.08441629  0.20613749  0.27208690     0.08000
H966        H  0.17001714  0.26755550  0.17006288     0.08000
H967        H  0.20169666  0.26648664  0.18902933     0.08000
H968        H  0.19264432  0.29927436  0.19004971     0.04700
C969        C  0.43573499  0.43786464  0.21239706    -0.21100
C970        C  0.43682569  0.46392372  0.22445952    -0.07600
C971        C  0.42368153  0.48229376  0.21331099     0.13200
C972        C  0.40620095  0.47128940  0.19222127    -0.21100
C973        C  0.39991792  0.44161207  0.18273099    -0.07600
C974        C  0.41718177  0.42637215  0.19183489     0.13200
C975        C  0.41336754  0.39605651  0.18092218    -0.24500
H976        H  0.44752432  0.42483213  0.21978392     0.14500
H977        H  0.39296404  0.48303312  0.18500119     0.14500
C978        C  0.42673234  0.01260185  0.22376355    -0.24400
H979        H  0.42837065  0.38689106  0.19021353     0.04800
H980        H  0.42208327  0.40208015  0.16290615     0.08000
H981        H  0.38676521  0.37594147  0.18097085     0.08000
H982        H  0.45341323  0.03135070  0.22673404     0.08000
H983        H  0.41312818  0.00600484  0.24027508     0.08000
H984        H  0.41579917  0.02407342  0.21224893     0.04700
C985        C  0.28087964  0.40256644  0.21281608    -0.21100
C986        C  0.28274015  0.37720154  0.20185298    -0.07600
C987        C  0.27347447  0.34777270  0.21515152     0.13200
C988        C  0.25890834  0.34342255  0.23688356    -0.21100
C989        C  0.25540840  0.36823684  0.24665008    -0.07600
C990        C  0.26796776  0.39878615  0.23481527     0.13200
C991        C  0.26976909  0.42841493  0.24565959    -0.24500
H992        H  0.29169629  0.42678965  0.20477558     0.14500
H993        H  0.24992932  0.32026188  0.24629306     0.14500
C994        C  0.27971692  0.32107858  0.20767910    -0.24400
H995        H  0.28463939  0.45131563  0.23520774     0.04800
H996        H  0.28194740  0.43244587  0.26295897     0.08000
H997        H  0.24443579  0.42491734  0.24714027     0.08000
H998        H  0.30623287  0.33176714  0.20278370     0.08000
H999        H  0.26237505  0.30713428  0.19339839     0.08000
H1000       H  0.27490394  0.30274651  0.22176734     0.04700
C1001       C  0.45153257  0.35002095  0.11489736    -0.21100
C1002       C  0.44996059  0.31972587  0.11933013    -0.07600
C1003       C  0.41824265  0.29128451  0.12304477     0.13200
C1004       C  0.38945359  0.29427576  0.12335106    -0.21100
C1005       C  0.39138089  0.32497727  0.11998200    -0.07600
C1006       C  0.42286469  0.35295708  0.11483165     0.13200
C1007       C  0.42638218  0.38575213  0.10817141    -0.24500
H1008       H  0.47562611  0.37180446  0.11149234     0.14500
H1009       H  0.36531899  0.27254570  0.12672154     0.14500
C1010       C  0.41473025  0.25803594  0.12754225    -0.24400
H1011       H  0.45235071  0.40420537  0.10311826     0.04800
H1012       H  0.42001221  0.39593572  0.12279832     0.08000
H1013       H  0.40957458  0.38266581  0.09325457     0.08000
H1014       H  0.43008731  0.25906964  0.14286935     0.08000
H1015       H  0.42312083  0.25067002  0.11230819     0.08000
H1016       H  0.38836813  0.23868101  0.13085431     0.04700
C1017       C  0.20638974  0.10955091  0.12451897    -0.21100
C1018       C  0.17596675  0.10941852  0.12329956    -0.07600
C1019       C  0.14583476  0.07866129  0.12123837     0.13200
C1020       C  0.14693037  0.04935816  0.12096141    -0.21100
C1021       C  0.17718963  0.04925129  0.12278706    -0.07600
C1022       C  0.20742294  0.08002949  0.12458204     0.13200
C1023       C  0.24071146  0.08203861  0.12779456    -0.24500
H1024       H  0.22956983  0.13295282  0.12606973     0.14500
H1025       H  0.12362408  0.02608670  0.11934086     0.14500
C1026       C  0.11229084  0.07632241  0.11859605    -0.24400
H1027       H  0.26140778  0.10783579  0.13017430     0.04800
H1028       H  0.24654080  0.07252898  0.11248991     0.08000
H1029       H  0.24015554  0.06739101  0.14331582     0.08000
H1030       H  0.11267840  0.09198446  0.10376740     0.08000
H1031       H  0.10616594  0.08429419  0.13458649     0.08000
H1032       H  0.09181661  0.05066479  0.11538273     0.04700
C1033       C  0.23973203  0.42367374  0.88243687    -0.21100
C1034       C  0.20735070  0.41293607  0.89020328    -0.07600
C1035       C  0.18578728  0.41938999  0.87610559     0.13200
C1036       C  0.19844381  0.43944136  0.85625935    -0.21100
C1037       C  0.23206987  0.45350672  0.85044726    -0.07600
C1038       C  0.25227326  0.44371250  0.86279414     0.13200
C1039       C  0.28833012  0.45679605  0.85705951    -0.24500
H1040       H  0.25643754  0.41838713  0.89258425     0.14500
H1041       H  0.18308203  0.44716805  0.84672876     0.14500
C1042       C  0.14961880  0.40542005  0.88161665    -0.24400
H1043       H  0.29200491  0.43595468  0.85314464     0.04800
H1044       H  0.30537052  0.97423255  0.87388337     0.08000
H1045       H  0.29814469  0.97764850  0.84373191     0.08000
H1046       H  0.14713282  0.41456507  0.89837661     0.08000
H1047       H  0.13722348  0.37817980  0.88199909     0.08000
H1048       H  0.13656378  0.41252502  0.86838479     0.04700
C1049       C  0.08573964  0.27110839  0.87926200    -0.21100
C1050       C  0.08576796  0.29638162  0.89146442    -0.07600
C1051       C  0.06752448  0.31099518  0.88263904     0.13200
C1052       C  0.04939076  0.29947086  0.86204847    -0.21100
C1053       C  0.04621834  0.27172820  0.85145113    -0.07600
C1054       C  0.06542195  0.25802193  0.85961906     0.13200
C1055       C  0.06240186  0.22805924  0.84868100    -0.24500
H1056       H  0.10033665  0.26044826  0.88578365     0.14500
H1057       H  0.03290108  0.30836121  0.85637307     0.14500
C1058       C  0.06309586  0.33534083  0.89616720    -0.24400
H1059       H  0.07893471  0.22024058  0.85736852     0.04800
H1060       H  0.06965064  0.23377368  0.83033161     0.08000
H1061       H  0.03624532  0.20711653  0.84974491     0.08000
H1062       H  0.08705790  0.35857782  0.89863770     0.08000
H1063       H  0.05257429  0.32438831  0.91329218     0.08000
H1064       H  0.04568255  0.34187689  0.88729692     0.04700
C1065       C  0.24816701  0.30747859  0.86495853    -0.21100
C1066       C  0.22688519  0.27619437  0.85583630    -0.07600
C1067       C  0.19423995  0.25690291  0.86436233     0.13200
C1068       C  0.18451245  0.26819035  0.88295155    -0.21100
C1069       C  0.20702341  0.29793193  0.89388934    -0.07600
C1070       C  0.23899270  0.31844496  0.88411196     0.13200
C1071       C  0.26405795  0.35140865  0.89391129    -0.24500
H1072       H  0.27350613  0.32185800  0.85862286     0.14500
H1073       H  0.15962296  0.25263068  0.88973577     0.14500
C1074       C  0.17040312  0.22335061  0.85483256    -0.24400
H1075       H  0.28704419  0.36442325  0.88343292     0.04800
H1076       H  0.27170972  0.34813263  0.91162091     0.08000
H1077       H  0.25289505  0.36725880  0.89415241     0.08000
H1078       H  0.18112243  0.20706910  0.85697512     0.08000
H1079       H  0.16571193  0.22596865  0.83628559     0.08000
H1080       H  0.14595916  0.21121190  0.86366375     0.04700
C1081       C  0.30915943  0.05874024  0.05808502    -0.21100
C1082       C  0.27599995  0.04508307  0.06504689    -0.07600
C1083       C  0.25494112  0.05398463  0.05283589     0.13200
C1084       C  0.26607748  0.07259814  0.03238429    -0.21100
C1085       C  0.29810865  0.08334814  0.02386670    -0.07600
C1086       C  0.32036416  0.07731326  0.03746487     0.13200
C1087       C  0.35573329  0.08994716  0.03043259    -0.24500
H1088       H  0.32508666  0.05143053  0.06729725     0.14500
H1089       H  0.24884797  0.07732709  0.02239211     0.14500
C1090       C  0.21943057  0.04108066  0.06014558    -0.24400
H1091       H  0.36990327  0.08402255  0.04353469     0.04800
H1092       H  0.36830794  0.11698625  0.02857741     0.08000
H1093       H  0.35617739  0.07894922  0.01392859     0.08000
H1094       H  0.21954764  0.05013593  0.07750650     0.08000
H1095       H  0.20506011  0.01371961  0.06045991     0.08000
H1096       H  0.20612113  0.04966861  0.04827163     0.04700
C1097       C  0.18747626  0.41523097  0.04058371    -0.21100
C1098       C  0.22084130  0.42942763  0.04838191    -0.07600
C1099       C  0.24506690  0.43259499  0.03220162     0.13200
C1100       C  0.23543756  0.42328927  0.00923031    -0.21100
C1101       C  0.20216243  0.40925314  0.00163572    -0.07600
C1102       C  0.17790580  0.40563517  0.01768564     0.13200
C1103       C  0.14170909  0.39238613  0.01110721    -0.24500
H1104       H  0.16854982  0.41323036  0.05186316     0.14500
H1105       H  0.25410330  0.42588545  0.99723867     0.14500
C1106       C  0.28163575  0.44659464  0.03839576    -0.24400
H1107       H  0.12685837  0.39297317  0.02553587     0.04800
H1108       H  0.13031266  0.36638053  0.00622037     0.08000
H1109       H  0.13974498  0.40727797  0.99660731     0.08000
H1110       H  0.28444404  0.42995607  0.05096155     0.08000
H1111       H  0.29292413  0.47174408  0.04535560     0.08000
H1112       H  0.29658414  0.44861111  0.02319793     0.04700
C1113       C  0.44424305  0.23696317  0.05631429    -0.21100
C1114       C  0.45567950  0.21667216  0.06568842    -0.07600
C1115       C  0.44472867  0.18590896  0.05566529     0.13200
C1116       C  0.42711213  0.17844403  0.03467976    -0.21100
C1117       C  0.41864462  0.20027896  0.02376997    -0.07600
C1118       C  0.42665774  0.22972606  0.03517918     0.13200
C1119       C  0.41836122  0.25454239  0.02505374    -0.24500
H1120       H  0.45318855  0.26083112  0.06391584     0.18100
H1121       H  0.42172922  0.15617095  0.02612831     0.14500
C1122       C  0.45408152  0.16207210  0.06615200    -0.24400
H1123       H  0.42657265  0.27586331  0.03650349     0.04800
H1124       H  0.39102242  0.24277420  0.02269403     0.08000
H1125       H  0.43107510  0.26436139  0.00833787     0.08000
H1126       H  0.44389944  0.15513169  0.08379517     0.08000
H1127       H  0.48167152  0.17343407  0.06677339     0.08000
H1128       H  0.44351256  0.13909709  0.05612518     0.04700
C1129       C  0.10999848  0.28709391  0.01890988    -0.21100
C1130       C  0.09561471  0.29894514  0.00232464    -0.07600
C1131       C  0.07252128  0.30765600  0.00962080     0.13200
C1132       C  0.06305297  0.30219101  0.03276441    -0.21100
C1133       C  0.07329123  0.28517940  0.04841521    -0.07600
C1134       C  0.10003857  0.28118965  0.04195354     0.13200
C1135       C  0.12099055  0.27435578  0.05890101    -0.24500
H1136       H  0.13014226  0.28329869  0.01406958     0.14500
H1137       H  0.04435722  0.30781031  0.03809025     0.14500
C1138       C  0.05647844  0.32114949  0.99315291    -0.24400
H1139       H  0.14793082  0.29190925  0.05566989     0.04800
H1140       H  0.11602813  0.24890570  0.05679999     0.08000
H1141       H  0.11686561  0.27844366  0.07689955     0.08000
H1142       H  0.04386754  0.30381136  0.97878752     0.08000
H1143       H  0.07556489  0.34560146  0.98615473     0.08000
H1144       H  0.03736726  0.32445711  0.00174192     0.04700
C1145       C  0.32306871  0.23415038  0.03009676    -0.21100
C1146       C  0.30195122  0.20180038  0.02262219    -0.07600
C1147       C  0.27316948  0.18024420  0.03547957     0.13200
C1148       C  0.26501107  0.19253359  0.05432037    -0.21100
C1149       C  0.28452899  0.22577594  0.06015997    -0.07600
C1150       C  0.31473295  0.24638899  0.04864650     0.13200
C1151       C  0.33722355  0.28224568  0.05419996    -0.24500
H1152       H  0.34530896  0.25086263  0.02051983     0.14500
H1153       H  0.24151696  0.17706103  0.06303352     0.14500
C1154       C  0.25087754  0.14457262  0.02951342    -0.24400
H1155       H  0.36254711  0.28691443  0.05907284     0.04800
H1156       H  0.32783271  0.28986679  0.06858266     0.08000
H1157       H  0.33916482  0.29778978  0.03886804     0.08000
H1158       H  0.26601633  0.13253512  0.02987355     0.08000
H1159       H  0.23919896  0.14237452  0.01221681     0.08000
H1160       H  0.23038970  0.13123255  0.04206233     0.04700
C1161       C  0.22280355  0.30713053  0.04338913    -0.21100
C1162       C  0.21454528  0.27430473  0.04652876    -0.07600
C1163       C  0.19440661  0.25139170  0.02910780     0.13200
C1164       C  0.18878603  0.26318181  0.00791914    -0.21100
C1165       C  0.20119962  0.29685285  0.00376769    -0.07600
C1166       C  0.21654528  0.31866300  0.02244559     0.13200
C1167       C  0.22585374  0.35412933  0.02102991    -0.24500
H1168       H  0.23505761  0.32451902  0.05698543     0.14500
H1169       H  0.17490665  0.24588751  0.99437053     0.14500
C1170       C  0.17883764  0.21444486  0.03222022    -0.24400
H1171       H  0.23549106  0.36674788  0.03772921     0.04800
H1172       H  0.20309601  0.35511506  0.01634442     0.08000
H1173       H  0.24583496  0.36777380  0.00821869     0.08000
H1174       H  0.16085415  0.20539135  0.04654053     0.08000
H1175       H  0.19786424  0.20728272  0.03557370     0.08000
H1176       H  0.16449090  0.20108170  0.01662245     0.04700
C1177       C  0.23190775  0.76475984  0.06550540     0.85700
C1178       C  0.20759243  0.73713748  0.08155789    -0.54500
C1179       C  0.22216816  0.72525380  0.09666063     0.08700
C1180       C  0.26076370  0.74322831  0.09502117     0.19600
C1181       C  0.25726629  0.79140049  0.08219685    -0.55200
C1182       C  0.27282545  0.78039286  0.09739635     0.08800
C1183       C  0.25265786  0.75224558  0.05461186    -0.54800
C1184       C  0.26696757  0.74046466  0.06966862     0.09300
H1185       H  0.18083092  0.72761097  0.08103701     0.13800
H1186       H  0.27288214  0.73378751  0.10728321    -0.00400
H1187       H  0.26482457  0.81723200  0.08128007     0.14200
H1188       H  0.25552158  0.75218219  0.03607325     0.13900
C1189       C  0.04991005  0.76789286  0.06887517     0.85700
C1190       C  0.05017026  0.79189265  0.08608907    -0.54500
C1191       C  0.02534723  0.77798572  0.10193698     0.08700
C1192       C  0.50233983  0.73975095  0.09963839     0.19600
C1193       C  0.05129294  0.74087445  0.08381122    -0.55200
C1194       C  0.02637355  0.72583877  0.09983028     0.08800
C1195       C  0.01432488  0.74930006  0.05893127    -0.54800
C1196       C  0.48956227  0.73533629  0.07456583     0.09300
H1197       H  0.06698503  0.81839149  0.08450671     0.13800
H1198       H  0.48200845  0.72799535  0.11243309    -0.00400
H1199       H  0.06773423  0.73148765  0.08070823     0.14200
H1200       H  0.00874692  0.74697698  0.04050088     0.13900
C1201       C  0.23216992  0.95214133  0.06889187     0.85700
C1202       C  0.25869927  0.95181190  0.08502197    -0.54500
C1203       C  0.27269567  0.97675906  0.10055122     0.08700
C1204       C  0.25673277  0.49858550  0.10014322     0.19600
C1205       C  0.20577304  0.94967336  0.08584083    -0.55200
C1206       C  0.21809189  0.97440236  0.10165571     0.08800
C1207       C  0.24785940  0.98696231  0.05900795    -0.54800
C1208       C  0.26082877  0.51075823  0.07493258     0.09300
H1209       H  0.26639709  0.93372377  0.08406276     0.13800
H1210       H  0.26758040  0.51884115  0.11274637    -0.00400
H1211       H  0.17938192  0.93135657  0.08507502     0.14200
H1212       H  0.24882953  0.49162550  0.04110678     0.13900
O1213       O  0.21327288  0.87949999  0.91879474    -0.82600
C1214       C  0.10968334  0.80472392  0.97893319     0.96800
O1215       O  0.10913004  0.82592251  0.96518213    -0.71700
O1216       O  0.16402842  0.87950513  0.97125271    -0.75300
Al1217     Al  0.14373700  0.85664021  0.94454214     1.49000
C1218       C  0.19391129  0.89396509  0.97777548     0.92100
O1219       O  0.21151719  0.83756841  0.97482408    -0.81500
O1220       O  0.16422252  0.79071720  0.91834638    -0.75000
Al1221     Al  0.21062348  0.85763928  0.94664682     1.90100
O1222       O  0.17609316  0.78685371  0.96553502    -0.74100
O1223       O  0.10762078  0.78566264  0.92662138    -0.74000
O1224       O  0.12338631  0.78898567  0.97322035    -0.79600
O1225       O  0.12082600  0.83616875  0.91781765    -0.77800
O1226       O  0.16622755  0.83535204  0.94559913    -1.14000
O1227       O  0.17400055  0.89125688  0.92372830    -0.73100
C1228       C  0.19742148  0.89323609  0.91184644     0.97600
C1229       C  0.19624034  0.80741433  0.98002138     0.94000
Al1230     Al  0.14440067  0.79142458  0.94585872     1.55600
O1231       O  0.21547113  0.89303895  0.96548353    -0.77800
C1232       C  0.10528017  0.80618913  0.91339031     0.98100
C1233       C  0.19497086  0.80575610  0.91407771     0.93000
O1234       O  0.21570479  0.82718356  0.92792632    -0.83100
C1235       C  0.17635195  0.64145033  0.12389419     0.79500
N1236       N  0.20063415  0.66858896  0.11243486    -0.78800
C1237       C  0.20087000  0.69762484  0.11243579     0.81900
N1238       N  0.17696651  0.69948379  0.12394181    -0.78800
C1239       C  0.15277658  0.67301968  0.13543858     0.82000
N1240       N  0.15245995  0.64395264  0.13539698    -0.80500
C1241       C  0.17544217  0.51634516  0.12488097     0.79500
N1242       N  0.14807725  0.49026159  0.13437860    -0.78800
C1243       C  0.14314885  0.95937066  0.13441283     0.81900
N1244       N  0.16655092  0.95426774  0.12475316    -0.78800
C1245       C  0.19486777  0.48029316  0.11574829     0.82000
N1246       N  0.19899887  0.51117828  0.11566403    -0.80500
C1247       C  0.48234128  0.82059467  0.12209336     0.79500
N1248       N  0.50791911  0.84627306  0.13315022    -0.78800
C1249       C  0.03854713  0.84965689  0.13590531     0.81900
N1250       N  0.04391806  0.82653974  0.12665214    -0.78800
C1251       C  0.01823867  0.80002597  0.11544930     0.82000
N1252       N  0.48763212  0.79720390  0.11326960    -0.80500
C1253       C  0.35989566  0.82697870  0.12099739     0.79500
N1254       N  0.33108170  0.80265870  0.11127056    -0.78800
C1255       C  0.30262143  0.80416017  0.11105790     0.81900
N1256       N  0.30285561  0.82982568  0.12127778    -0.78800
C1257       C  0.33105988  0.85399983  0.13165941     0.82000
N1258       N  0.35958152  0.85245255  0.13146005    -0.80500
C1259       C  0.30452050  0.88870860  0.18009276     0.85700
C1260       C  0.30268997  0.91446792  0.16403051    -0.54500
C1261       C  0.32753026  0.92927771  0.14818837     0.08700
C1262       C  0.35161083  0.91527093  0.14893594     0.19600
C1263       C  0.30299435  0.86387450  0.16302308    -0.55200
C1264       C  0.32798863  0.87696140  0.14713839     0.08800
C1265       C  0.34000357  0.90597097  0.18981077    -0.54800
C1266       C  0.36453529  0.92026630  0.17408661     0.09300
H1267       H  0.28362939  0.92114791  0.16536703     0.13800
H1268       H  0.37177569  0.92659008  0.13600726    -0.00400
H1269       H  0.28381845  0.83812519  0.16293047     0.14200
H1270       H  0.34549235  0.90808907  0.20825848     0.13900
C1271       C  0.11482362  0.70157772  0.18078516     0.85700
C1272       C  0.14146697  0.70309092  0.16469064    -0.54500
C1273       C  0.12936757  0.67754227  0.14953716     0.08700
C1274       C  0.09131572  0.65275767  0.15157007     0.19600
C1275       C  0.08736228  0.69951862  0.16464787    -0.55200
C1276       C  0.07447002  0.67419624  0.14950745     0.08800
C1277       C  0.10022224  0.66728911  0.19185301    -0.54800
C1278       C  0.08828574  0.64199332  0.17704516     0.09300
H1279       H  0.16803802  0.72005951  0.16634730     0.13800
H1280       H  0.08135392  0.63202411  0.13938527    -0.00400
H1281       H  0.07802781  0.71640077  0.16569752     0.14200
H1282       H  0.10045711  0.66325828  0.21041331     0.13900
C1283       C  0.07624921  0.91710035  0.18101413     0.85700
C1284       C  0.09908244  0.94343408  0.16328736    -0.54500
C1285       C  0.11409332  0.93333819  0.14807285     0.08700
C1286       C  0.10269248  0.89596478  0.15144682     0.19600
C1287       C  0.05074697  0.88879046  0.16661577    -0.55200
C1288       C  0.06337674  0.87708103  0.15098935     0.08800
C1289       C  0.09907438  0.90616865  0.19188640    -0.54800
C1290       C  0.11221508  0.89426534  0.17706654     0.09300
H1291       H  0.10625061  0.96908146  0.16428953     0.13800
H1292       H  0.11384516  0.88673038  0.13923527    -0.00400
H1293       H  0.02412819  0.87898004  0.16866300     0.14200
H1294       H  0.10475760  0.90781443  0.21027650     0.13900
O1295       O  0.22853150  0.88172398  0.31651119    -0.82600
C1296       C  0.14694475  0.77125350  0.26700452     0.96800
O1297       O  0.17719468  0.78671727  0.27323701    -0.71700
O1298       O  0.23276875  0.83997834  0.28182578    -0.75300
Al1299     Al  0.19508185  0.80998630  0.30066872     1.49000
C1300       C  0.23460544  0.86105692  0.26695775     0.92100
O1301       O  0.16442918  0.87644905  0.27076179    -0.81500
O1302       O  0.12128228  0.84003905  0.31023760    -0.75000
Al1303     Al  0.19414590  0.87455229  0.29406223     1.90100
O1304       O  0.12811849  0.82463611  0.26500468    -0.74100
O1305       O  0.12454258  0.78934191  0.32392893    -0.74000
O1306       O  0.12509938  0.77141184  0.27935326    -0.79600
O1307       O  0.16244896  0.77533752  0.32044975    -0.77800
O1308       O  0.17248076  0.83094574  0.29661667    -1.14000
O1309       O  0.21475268  0.83192747  0.32822324    -0.73100
C1310       C  0.22903130  0.86234701  0.33192323     0.97600
C1311       C  0.14426427  0.85372799  0.25743376     0.94000
Al1312     Al  0.12808600  0.80817353  0.29475594     1.55600
O1313       O  0.21798561  0.87484113  0.26917574    -0.77800
C1314       C  0.13881163  0.77437609  0.33147368     0.98100
C1315       C  0.14163018  0.86307111  0.32319797     0.93000
O1316       O  0.17224361  0.87829544  0.31895152    -0.83100
C1317       C  0.48945127  0.63866289  0.12220663     0.79500
N1318       N  0.49198729  0.66677251  0.11267267    -0.78800
C1319       C  0.02163920  0.69604568  0.11304797     0.81900
N1320       N  0.04854329  0.69704438  0.12365886    -0.78800
C1321       C  0.04648386  0.66968884  0.13384763     0.82000
N1322       N  0.01683022  0.64051905  0.13299273    -0.80500
C1323       C  0.36032607  0.51405030  0.12386613     0.79500
N1324       N  0.35959647  0.48690564  0.13375676    -0.78800
C1325       C  0.33051841  0.95768555  0.13400151     0.81900
N1326       N  0.30229543  0.95539801  0.12449487    -0.78800
C1327       C  0.30253868  0.98200501  0.11446118     0.82000
N1328       N  0.33150639  0.51088521  0.11443715    -0.80500
C1329       C  0.44469968  0.87797469  0.51251264     0.85700
C1330       C  0.47097729  0.87841371  0.49662588    -0.54500
C1331       C  0.45817188  0.85251298  0.48177029     0.08700
C1332       C  0.41962635  0.82850049  0.48398361     0.19600
C1333       C  0.41903323  0.87769198  0.49527022    -0.55200
C1334       C  0.40428281  0.85108696  0.48117360     0.08800
C1335       C  0.42776943  0.84395584  0.52393821    -0.54800
C1336       C  0.41527382  0.81827445  0.50958866     0.09300
H1337       H  0.49740897  0.89684874  0.49724259     0.13800
H1338       H  0.40886928  0.80731545  0.47215735    -0.00400
H1339       H  0.41280359  0.89688581  0.49413463     0.14200
H1340       H  0.42657379  0.84029542  0.54259735     0.13900
C1341       C  0.41482124  0.59265610  0.51660701     0.85700
C1342       C  0.43850690  0.61853216  0.49929046    -0.54500
C1343       C  0.45131084  0.60733476  0.48319512     0.08700
C1344       C  0.43814591  0.56950660  0.48600932     0.19600
C1345       C  0.38808531  0.56554987  0.50181635    -0.55200
C1346       C  0.39923836  0.55271470  0.48581553     0.08800
C1347       C  0.43588332  0.57916638  0.52690646    -0.54800
C1348       C  0.44698525  0.56585433  0.51150236     0.09300
H1349       H  0.44693929  0.64445592  0.50065030     0.13800
H1350       H  0.44797785  0.55951999  0.47334440    -0.00400
H1351       H  0.36178600  0.55686621  0.50441464     0.14200
H1352       H  0.44005154  0.57820941  0.54538078     0.13900
C1353       C  0.12775875  0.56267417  0.51288898     0.85700
C1354       C  0.12934822  0.58895584  0.49625522    -0.54500
C1355       C  0.15485448  0.60148850  0.48100216     0.08700
C1356       C  0.17681097  0.58499020  0.48341536     0.19600
C1357       C  0.12594396  0.53561190  0.49743593    -0.55200
C1358       C  0.15152721  0.54682806  0.48195000     0.08800
C1359       C  0.16271676  0.57760806  0.52379930    -0.54800
C1360       C  0.18835761  0.58968018  0.50897291     0.09300
H1361       H  0.11230935  0.59826635  0.49736546     0.13800
H1362       H  0.19775048  0.59469345  0.47111827    -0.00400
H1363       H  0.10886455  0.50947023  0.50013293     0.14200
H1364       H  0.16705909  0.57837418  0.54236396     0.13900
O1365       O  0.04265235  0.54765098  0.65918360    -0.82600
C1366       C  0.47707804  0.93836815  0.60205581     0.96800
O1367       O  0.50104906  0.94282715  0.61515730    -0.71700
O1368       O  0.05167212  0.50089701  0.60656296    -0.75300
Al1369     Al  0.02886384  0.97997532  0.63427650     1.49000
C1370       C  0.06515348  0.53079699  0.60100406     0.92100
O1371       O  0.00939119  0.54219288  0.59838437    -0.81500
O1372       O  0.45509169  0.49961732  0.65257858    -0.75000
Al1373     Al  0.02551842  0.54409866  0.62870079     1.90100
O1374       O  0.45742362  0.50288793  0.60410155    -0.74100
O1375       O  0.45649106  0.94628351  0.65504412    -0.74000
O1376       O  0.45935134  0.95016678  0.60697442    -0.79600
O1377       O  0.00824454  0.95810965  0.66171594    -0.77800
O1378       O  0.00478175  0.50018798  0.63091423    -1.14000
O1379       O  0.06179771  0.51423004  0.65421334    -0.73100
C1380       C  0.05879680  0.53420441  0.66668702     0.97600
C1381       C  0.47991908  0.52400052  0.59076528     0.94000
Al1382     Al  0.46040543  0.97621183  0.63021431     1.55600
O1383       O  0.06546718  0.55058693  0.61519487    -0.77800
C1384       C  0.47820506  0.94502721  0.66805247     0.98100
C1385       C  0.46710302  0.53001096  0.65363425     0.93000
O1386       O  0.49103634  0.54933931  0.64098330    -0.83100
C1387       C  0.19478648  0.50403413  0.46116234     0.79500
N1388       N  0.18921171  0.52698942  0.47047712    -0.78800
C1389       C  0.15775475  0.52289771  0.46958609     0.81900
N1390       N  0.13186243  0.49550826  0.45898362    -0.78800
C1391       C  0.13762685  0.97225129  0.44983340     0.82000
N1392       N  0.16877463  0.97704042  0.45164723    -0.80500
C1393       C  0.31600615  0.99678087  0.45931787     0.79500
N1394       N  0.32019877  0.97398683  0.44838277    -0.78800
C1395       C  0.35085562  0.97643393  0.44849563     0.81900
N1396       N  0.37752239  0.00211980  0.45978105    -0.78800
C1397       C  0.37346815  0.52555118  0.47104157     0.82000
N1398       N  0.34278399  0.52220704  0.47035562    -0.80500
C1399       C  0.00140022  0.68791389  0.45332895     0.79500
N1400       N  0.97726929  0.66148133  0.46471785    -0.78800
C1401       C  0.97681673  0.63261264  0.46705993     0.81900
N1402       N  0.00137987  0.62983019  0.45692718    -0.78800
C1403       C  0.02642222  0.65643444  0.44518626     0.82000
N1404       N  0.02632543  0.68540764  0.44355635    -0.80500
C1405       C  0.49632829  0.80866216  0.45573710     0.79500
N1406       N  0.47447045  0.81468610  0.46656357    -0.78800
C1407       C  0.48053863  0.84622226  0.46775424     0.81900
N1408       N  0.50875919  0.87193708  0.45787091    -0.78800
C1409       C  0.03011811  0.86558342  0.44653680     0.82000
N1410       N  0.02331249  0.83411960  0.44594964    -0.80500
C1411       C  0.31761241  0.81323541  0.45618416     0.79500
N1412       N  0.34595806  0.81587117  0.46611193    -0.78800
C1413       C  0.37498217  0.84561567  0.46670923     0.81900
N1414       N  0.37542264  0.87247014  0.45722477    -0.78800
C1415       C  0.34777125  0.87063203  0.44732809     0.82000
N1416       N  0.31869820  0.84088848  0.44697058    -0.80500
C1417       C  0.19030637  0.68734752  0.45704944     0.79500
N1418       N  0.16198990  0.68513529  0.44747943    -0.78800
C1419       C  0.13270128  0.65566102  0.44702135     0.81900
N1420       N  0.13195409  0.62849446  0.45633467    -0.78800
C1421       C  0.15966543  0.62997222  0.46604279     0.82000
N1422       N  0.18891830  0.65955047  0.46619455    -0.80500
C1423       C  0.10345317  0.90421857  0.40476628     0.85700
C1424       C  0.12707662  0.92939181  0.42204579    -0.54500
C1425       C  0.11371628  0.94383369  0.43498938     0.08700
C1426       C  0.07534655  0.92870547  0.43022211     0.19600
C1427       C  0.07599039  0.87884426  0.42026197    -0.55200
C1428       C  0.06005198  0.89051737  0.43327384     0.08800
C1429       C  0.08737668  0.92039338  0.39125365    -0.54800
C1430       C  0.07319454  0.93353872  0.40385317     0.09300
H1431       H  0.15249638  0.93469851  0.42420185     0.13800
H1432       H  0.06341205  0.93922996  0.44054341    -0.00400
H1433       H  0.07000582  0.85343032  0.42118965     0.14200
H1434       H  0.08743692  0.92169250  0.37247581     0.13900
C1435       C  0.06494485  0.62906656  0.39987984     0.85700
C1436       C  0.08958490  0.62671845  0.41708106    -0.54500
C1437       C  0.10327829  0.65120068  0.43305866     0.08700
C1438       C  0.08938447  0.67522775  0.43094478     0.19600
C1439       C  0.03832255  0.62848846  0.41502545    -0.55200
C1440       C  0.05042223  0.65230123  0.43125508     0.08800
C1441       C  0.08574213  0.66389979  0.39024174    -0.54800
C1442       C  0.09710827  0.68810648  0.40582324     0.09300
H1443       H  0.09857731  0.60970485  0.41555413     0.13800
H1444       H  0.09965409  0.69507908  0.44384639    -0.00400
H1445       H  0.01174151  0.61131728  0.41243631     0.14200
H1446       H  0.09020567  0.66946985  0.37190610     0.13900
C1447       C  0.37937398  0.93990865  0.40182916     0.85700
C1448       C  0.38147678  0.96574402  0.41867383    -0.54500
C1449       C  0.35575561  0.95349348  0.43405276     0.08700
C1450       C  0.33038997  0.91557990  0.43146848     0.19600
C1451       C  0.37853989  0.91335533  0.41798554    -0.55200
C1452       C  0.35247685  0.89935148  0.43289784     0.08800
C1453       C  0.34461558  0.92521550  0.39110775    -0.54800
C1454       C  0.31909336  0.91230516  0.40598498     0.09300
H1455       H  0.40053802  0.99163486  0.41835715     0.13800
H1456       H  0.30938309  0.90497922  0.44375241    -0.00400
H1457       H  0.39714217  0.90600308  0.41767040     0.14200
H1458       H  0.34026136  0.92451163  0.37253028     0.13900
O1459       O  0.06188392  0.55201715  0.26576828    -0.82600
C1460       C  0.44684316  0.97684275  0.31362986     0.96800
O1461       O  0.46466769  0.00636336  0.30733265    -0.71700
O1462       O  0.02160871  0.55847710  0.29954554    -0.75300
Al1463     Al  0.48942939  0.52316762  0.28036993     1.49000
C1464       C  0.03959234  0.55653607  0.31562204     0.92100
O1465       O  0.05034374  0.98353078  0.30869367    -0.81500
O1466       O  0.01184880  0.94483071  0.27104266    -0.75000
Al1467     Al  0.05109939  0.51593059  0.28710619     1.90100
O1468       O  0.99724988  0.95186032  0.31609703    -0.74100
O1469       O  0.46400249  0.95345833  0.25619014    -0.74000
O1470       O  0.44519019  0.95426910  0.30138088    -0.79600
O1471       O  0.45405108  0.99352314  0.26017112    -0.77800
O1472       O  0.00767351  0.99794634  0.28458148    -1.14000
O1473       O  0.01269700  0.54154159  0.25340778    -0.73100
C1474       C  0.04342562  0.55398586  0.25011592     0.97600
C1475       C  0.02741710  0.96415151  0.32230788     0.94000
Al1476     Al  0.48134066  0.95413179  0.28612407     1.55600
O1477       O  0.05297633  0.53945700  0.31310523    -0.77800
C1478       C  0.45242660  0.97081594  0.24812050     0.98100
C1479       C  0.03537649  0.96366724  0.25769550     0.93000
O1480       O  0.05296208  0.99396747  0.26150302    -0.83100
C1481       C  0.39494343  0.79734844  0.73622977     0.85700
C1482       C  0.41545071  0.79251607  0.75550480    -0.54500
C1483       C  0.43096334  0.81785462  0.77064780     0.08700
C1484       C  0.42078255  0.84456000  0.76670397     0.19600
C1485       C  0.36856309  0.80019880  0.74974617    -0.55200
C1486       C  0.38152582  0.82479338  0.76568085     0.08800
C1487       C  0.41738662  0.83175409  0.72627590    -0.54800
C1488       C  0.43096169  0.85630753  0.74164462     0.09300
H1489       H  0.41870765  0.77138231  0.75665084     0.13800
H1490       H  0.43194030  0.86468845  0.77939597    -0.00400
H1491       H  0.34181731  0.78359491  0.74773249     0.14200
H1492       H  0.42213191  0.83656944  0.70789005     0.13900
C1493       C  0.20772602  0.60855830  0.73535011     0.85700
C1494       C  0.21139791  0.63315978  0.75361923    -0.54500
C1495       C  0.18545661  0.62106900  0.76878417     0.08700
C1496       C  0.15926369  0.58374677  0.76554007     0.19600
C1497       C  0.20559516  0.57988502  0.75013705    -0.55200
C1498       C  0.18011171  0.56616706  0.76558952     0.08800
C1499       C  0.17284983  0.59520852  0.72507924    -0.54800
C1500       C  0.14773909  0.58246761  0.74036451     0.09300
H1501       H  0.23194172  0.65836184  0.75423267     0.13800
H1502       H  0.13852557  0.57317064  0.77804269    -0.00400
H1503       H  0.22313098  0.57124756  0.74903267     0.14200
H1504       H  0.16804236  0.59473551  0.70657142     0.13900
C1505       C  0.42540088  0.57773339  0.72920549     0.85700
C1506       C  0.45216182  0.59919508  0.74685061    -0.54500
C1507       C  0.44181100  0.61263216  0.76290086     0.08700
C1508       C  0.40371156  0.60052502  0.76095371     0.19600
C1509       C  0.39814161  0.55091034  0.74430435    -0.55200
C1510       C  0.38612546  0.56211343  0.76088182     0.08800
C1511       C  0.41062266  0.59780094  0.71980673    -0.54800
C1512       C  0.39939294  0.60990009  0.73590946     0.09300
H1513       H  0.47773130  0.60446035  0.74602512     0.13800
H1514       H  0.39453694  0.61046704  0.77413268    -0.00400
H1515       H  0.38932734  0.52493654  0.74231160     0.14200
H1516       H  0.40902155  0.60218363  0.70140928     0.13900
O1517       O  0.38740100  0.72664347  0.59822737    -0.82600
C1518       C  0.27387925  0.64057971  0.64640771     0.96800
O1519       O  0.28876720  0.67042840  0.64022381    -0.71700
O1520       O  0.34165431  0.72685104  0.63366558    -0.75300
Al1521     Al  0.31377289  0.69021149  0.61353724     1.49000
C1522       C  0.36387035  0.72998624  0.64826641     0.92100
O1523       O  0.38456285  0.66425574  0.64311206    -0.81500
O1524       O  0.35011942  0.62143235  0.60610441    -0.75000
Al1525     Al  0.38118979  0.69296441  0.62012173     1.90100
O1526       O  0.33242494  0.62825826  0.65035352    -0.74100
O1527       O  0.29733175  0.62137318  0.59013550    -0.74000
O1528       O  0.27623622  0.62007407  0.63439882    -0.79600
O1529       O  0.28127168  0.65763813  0.59269124    -0.77800
O1530       O  0.33690359  0.66993814  0.61776406    -1.14000
O1531       O  0.33682459  0.71214472  0.58654119    -0.73100
C1532       C  0.36780567  0.72751296  0.58311513     0.97600
C1533       C  0.36230963  0.64530742  0.65726504     0.94000
Al1534     Al  0.31574594  0.62613967  0.62005643     1.55600
O1535       O  0.38036124  0.71609657  0.64513800    -0.77800
C1536       C  0.28155097  0.63468259  0.58196978     0.98100
C1537       C  0.37185269  0.64118776  0.59200444     0.93000
O1538       O  0.38581573  0.67170048  0.59488112    -0.83100
C1539       C  0.33145222  0.98188810  0.79098021     0.79500
N1540       N  0.30807642  0.98690953  0.80078273    -0.78800
C1541       C  0.31067614  0.51694358  0.79863147     0.81900
N1542       N  0.33671716  0.54246820  0.78693714    -0.78800
C1543       C  0.35936752  0.53731722  0.77628731     0.82000
N1544       N  0.35605630  0.00697782  0.77885254    -0.80500
C1545       C  0.33100825  0.85683663  0.79239669     0.79500
N1546       N  0.30809730  0.82906506  0.80393159    -0.78800
C1547       C  0.30991185  0.80117676  0.80405205     0.81900
N1548       N  0.33491908  0.80108565  0.79258102    -0.78800
C1549       C  0.35815198  0.82831763  0.78093031     0.82000
N1550       N  0.35616895  0.85627662  0.78091027    -0.80500
C1551       C  0.14446067  0.98142214  0.79180522     0.79500
N1552       N  0.17299410  0.98455187  0.80199270    -0.78800
C1553       C  0.20234389  0.51327435  0.80119887     0.81900
N1554       N  0.20318037  0.53973527  0.79060395    -0.78800
C1555       C  0.17560328  0.53761605  0.78030501     0.82000
N1556       N  0.14632936  0.00869293  0.78104226    -0.80500
C1557       C  0.01824179  0.85077148  0.79460347     0.79500
N1558       N  0.01555804  0.82194406  0.80304398    -0.78800
C1559       C  0.48522696  0.79265425  0.80250264     0.81900
N1560       N  0.45799262  0.79261065  0.79325105    -0.78800
C1561       C  0.45968785  0.82063172  0.78488506     0.82000
N1562       N  0.99004375  0.84970569  0.78569538    -0.80500
C1563       C  0.15113766  0.67068021  0.79220512     0.79500
N1564       N  0.17898897  0.69502372  0.80280565    -0.78800
C1565       C  0.20787380  0.69439030  0.80373465     0.81900
N1566       N  0.20896211  0.66922977  0.79378628    -0.78800
C1567       C  0.18153234  0.64460591  0.78307989     0.82000
N1568       N  0.15250524  0.64529401  0.78248933    -0.80500
C1569       C  0.02344549  0.66721375  0.79146368     0.79500
N1570       N  0.01846780  0.69064108  0.80074003    -0.78800
C1571       C  0.98774338  0.68802966  0.79890571     0.81900
N1572       N  0.46212780  0.66175067  0.78767075    -0.78800
C1573       C  0.46734303  0.63899263  0.77788036     0.82000
N1574       N  0.99785715  0.64217444  0.77992893    -0.80500
C1575       C  0.27638813  0.73260957  0.85036974     0.85700
C1576       C  0.25064444  0.70631944  0.83402562    -0.54500
C1577       C  0.23642315  0.71792923  0.81826489     0.08700
C1578       C  0.24927613  0.75539266  0.82036232     0.19600
C1579       C  0.30165552  0.76018965  0.83458403    -0.55200
C1580       C  0.28795310  0.77249742  0.81903643     0.08800
C1581       C  0.25626713  0.74640885  0.86088818    -0.54800
C1582       C  0.24285352  0.75886831  0.84564952     0.09300
H1583       H  0.24135811  0.68017608  0.83596869     0.13800
H1584       H  0.23783320  0.76518474  0.80779809    -0.00400
H1585       H  0.32845144  0.77009822  0.83623825     0.14200
H1586       H  0.25301881  0.74676082  0.87934541     0.13900
C1587       C  0.27513987  0.54664785  0.84514378     0.85700
C1588       C  0.30077419  0.54855754  0.82777177    -0.54500
C1589       C  0.28778357  0.52321490  0.81234797     0.08700
C1590       C  0.24969215  0.99889268  0.81593897     0.19600
C1591       C  0.24652355  0.54458591  0.83011353    -0.55200
C1592       C  0.23237435  0.51909206  0.81507945     0.08800
C1593       C  0.26136438  0.51221731  0.85586076    -0.54800
C1594       C  0.24767991  0.98784566  0.84123789     0.09300
H1595       H  0.32745250  0.56521432  0.82898081     0.13800
H1596       H  0.23875295  0.97816705  0.80371558    -0.00400
H1597       H  0.23701934  0.56117631  0.83213086     0.14200
H1598       H  0.26167055  0.50771074  0.87435714     0.13900
C1599       C  0.45270322  0.71806784  0.84458028     0.85700
C1600       C  0.45295531  0.74561754  0.82918869    -0.54500
C1601       C  0.97999338  0.76218980  0.81483625     0.08700
C1602       C  0.00343909  0.74757311  0.81597841     0.19600
C1603       C  0.45318052  0.69480252  0.82702631    -0.55200
C1604       C  0.98017308  0.70956581  0.81256025     0.08800
C1605       C  0.98752098  0.73504818  0.85594885    -0.54800
C1606       C  0.01355501  0.75015230  0.84143402     0.09300
H1607       H  0.43424424  0.75274544  0.82938830     0.13800
H1608       H  0.02505105  0.75991482  0.80421702    -0.00400
H1609       H  0.43492240  0.66865871  0.82669523     0.14200
H1610       H  0.99127368  0.73638252  0.87458634     0.13900
O1611       O  0.39798433  0.70991188  0.98727072    -0.82600
C1612       C  0.30919160  0.60587476  0.93523330     0.96800
O1613       O  0.33953235  0.61928857  0.94104274    -0.71700
O1614       O  0.39540300  0.67170374  0.94883490    -0.75300
Al1615     Al  0.36030646  0.63984813  0.96884826     1.49000
C1616       C  0.39361393  0.69221221  0.93500898     0.92100
O1617       O  0.32784732  0.71018108  0.95170984    -0.81500
O1618       O  0.28978219  0.66936800  0.98867260    -0.75000
Al1619     Al  0.36030072  0.70486777  0.96939385     1.90100
O1620       O  0.29180272  0.66009663  0.94131887    -0.74100
O1621       O  0.29183898  0.61635436  0.99618572    -0.74000
O1622       O  0.28830249  0.60469590  0.94927454    -0.79600
O1623       O  0.32958918  0.60352117  0.98857312    -0.77800
O1624       O  0.33803443  0.66116762  0.96919017    -1.14000
O1625       O  0.38322324  0.65924491  0.99660321    -0.73100
C1626       C  0.39872774  0.68938196  0.00139662     0.97600
C1627       C  0.30710632  0.69057674  0.93714305     0.94000
Al1628     Al  0.29364739  0.63919063  0.96892200     1.55600
O1629       O  0.37950396  0.70729073  0.94122121    -0.77800
C1630       C  0.30710081  0.60141556  0.00158173     0.98100
C1631       C  0.31151367  0.69090694  0.00200863     0.93000
O1632       O  0.34205765  0.70512479  0.99738153    -0.83100
C1633       C  0.41341424  0.72122578  0.87216529    -0.21100
C1634       C  0.42760222  0.70311346  0.86444378    -0.07600
C1635       C  0.42762519  0.67900989  0.88003578     0.13200
C1636       C  0.41664757  0.67634933  0.90277271    -0.21100
C1637       C  0.40589354  0.69707705  0.91088577    -0.07600
C1638       C  0.40402719  0.71970450  0.89504144     0.13200
C1639       C  0.39374738  0.74389122  0.90188189    -0.24500
H1640       H  0.41203131  0.73918982  0.86112814     0.14500
H1641       H  0.41695250  0.65809546  0.91444110     0.14500
C1642       C  0.44057793  0.65679812  0.87353743    -0.24400
H1643       H  0.39559821  0.76083682  0.88750568     0.04800
H1644       H  0.41011649  0.75936826  0.91615193     0.08000
H1645       H  0.36740396  0.73037136  0.90715939     0.08000
H1646       H  0.96717650  0.67174853  0.86788518     0.08000
H1647       H  0.42458731  0.64004469  0.85972310     0.08000
H1648       H  0.43996222  0.64088020  0.88826730     0.04700
C1649       C  0.25877879  0.56204966  0.88129495    -0.21100
C1650       C  0.28447248  0.57053011  0.86528321    -0.07600
C1651       C  0.31709115  0.59589938  0.87135981     0.13200
C1652       C  0.32417716  0.60591740  0.89441032    -0.21100
C1653       C  0.29913405  0.59359230  0.91127003    -0.07600
C1654       C  0.26555851  0.57277757  0.90411575     0.13200
C1655       C  0.23669004  0.56045763  0.92038320    -0.24500
H1656       H  0.23320139  0.54419106  0.87644574     0.14500
H1657       H  0.34954351  0.62447280  0.89904488     0.14500
C1658       C  0.34392000  0.61527421  0.85401714    -0.24400
H1659       H  0.21242173  0.54318752  0.91190035     0.04800
H1660       H  0.23481803  0.58150874  0.92652934     0.08000
H1661       H  0.24026527  0.54709325  0.93525007     0.08000
H1662       H  0.33317020  0.61348983  0.83644874     0.08000
H1663       H  0.36244083  0.60703408  0.85455264     0.08000
H1664       H  0.35712455  0.64191593  0.85809038     0.04700
C1665       C  0.30792346  0.74588739  0.88782399    -0.21100
C1666       C  0.29291340  0.72304809  0.86990381    -0.07600
C1667       C  0.28954379  0.69164578  0.87322625     0.13200
C1668       C  0.29282101  0.68144592  0.89561052    -0.21100
C1669       C  0.30239993  0.70281378  0.91439139    -0.07600
C1670       C  0.31138178  0.73600427  0.91017731     0.13200
C1671       C  0.32331622  0.76098997  0.92906111    -0.24500
H1672       H  0.31367301  0.77106015  0.88482951     0.14500
H1673       H  0.28941771  0.65702559  0.89816740     0.14500
C1674       C  0.28690636  0.67014429  0.85369061    -0.24400
H1675       H  0.32647682  0.78488863  0.92273354     0.04800
H1676       H  0.34800356  0.76605788  0.93590875     0.08000
H1677       H  0.30478371  0.75164250  0.94311599     0.08000
H1678       H  0.29157371  0.68317946  0.83675893     0.08000
H1679       H  0.26204755  0.64715485  0.85370292     0.08000
H1680       H  0.30647842  0.66332844  0.85591223     0.04700
C1681       C  0.08616080  0.69840649  0.78982601    -0.21100
C1682       C  0.05626573  0.66832896  0.79333608    -0.07600
C1683       C  0.05806915  0.63925308  0.79689193     0.13200
C1684       C  0.08921566  0.64101905  0.79629735    -0.21100
C1685       C  0.11902471  0.67092363  0.79236111    -0.07600
C1686       C  0.11737676  0.70008134  0.78904403     0.13200
C1687       C  0.14802035  0.73278999  0.78328535    -0.24500
H1688       H  0.08495430  0.72058560  0.78682278     0.14500
H1689       H  0.09031581  0.61874161  0.79909819     0.14500
C1690       C  0.02745247  0.60615897  0.80200432    -0.24400
H1691       H  0.14169266  0.75223453  0.77947580     0.04800
H1692       H  0.16007864  0.73038528  0.76782813     0.08000
H1693       H  0.16609859  0.74132484  0.79794040     0.08000
H1694       H  0.01067673  0.59725196  0.78663240     0.08000
H1695       H  0.01392868  0.60814648  0.81674627     0.08000
H1696       H  0.03406882  0.58711665  0.80665009     0.04700
C1697       C  0.05100838  0.91206424  0.78641638    -0.21100
C1698       C  0.05132557  0.88365660  0.79449599    -0.07600
C1699       C  0.08291087  0.88802405  0.80170724     0.13200
C1700       C  0.11215729  0.91982182  0.80066813    -0.21100
C1701       C  0.11175747  0.94818366  0.79242910    -0.07600
C1702       C  0.08012331  0.94368937  0.78523024     0.13200
C1703       C  0.07602333  0.97180845  0.77625862    -0.24500
H1704       H  0.02748364  0.90972082  0.78080392     0.14500
H1705       H  0.13578807  0.92236448  0.80628264     0.14500
C1706       C  0.08659568  0.85959089  0.81047187    -0.24400
H1707       H  0.04952247  0.96384965  0.77205767     0.04800
H1708       H  0.09018889  0.98200080  0.76014023     0.08000
H1709       H  0.08483949  0.99120157  0.78942890     0.08000
H1710       H  0.07834180  0.84071602  0.79696433     0.08000
H1711       H  0.07156455  0.84865538  0.82619646     0.08000
H1712       H  0.11294378  0.86746927  0.81515469     0.04700
C1713       C  0.30085641  0.91968543  0.79472935    -0.21100
C1714       C  0.33128250  0.94982738  0.79322823    -0.07600
C1715       C  0.36141796  0.94876727  0.79292214     0.13200
C1716       C  0.36004404  0.91825177  0.79268403    -0.21100
C1717       C  0.32971650  0.88812350  0.79325621    -0.07600
C1718       C  0.29960271  0.88898427  0.79483739     0.13200
C1719       C  0.26585456  0.85783178  0.79589534    -0.24500
H1720       H  0.27777576  0.92010245  0.79526777     0.14500
H1721       H  0.38320637  0.91798130  0.79218751     0.14500
C1722       C  0.39563435  0.97954126  0.79352036    -0.24400
H1723       H  0.24514748  0.86315351  0.79561715     0.04800
H1724       H  0.26382107  0.84388687  0.81212667     0.08000
H1725       H  0.26227910  0.84233979  0.78084325     0.08000
H1726       H  0.39736952  0.99531456  0.80792622     0.08000
H1727       H  0.40069091  0.99336373  0.77689168     0.08000
H1728       H  0.41584188  0.97370833  0.79623953     0.04700
C1729       C  0.40792219  0.65867017  0.71567384    -0.21100
C1730       C  0.38488633  0.62964391  0.72733660    -0.07600
C1731       C  0.35192878  0.61180737  0.71864374     0.13200
C1732       C  0.34498524  0.61876332  0.69620060    -0.21100
C1733       C  0.37048761  0.64284628  0.68209305    -0.07600
C1734       C  0.40213108  0.66429087  0.69252489     0.13200
C1735       C  0.43085619  0.69152901  0.67933035    -0.24500
H1736       H  0.43304973  0.67284504  0.72284926     0.14500
H1737       H  0.32009271  0.60350526  0.68923089     0.14500
C1738       C  0.32524445  0.58270429  0.73194064    -0.24400
H1739       H  0.45325041  0.70593232  0.69052499     0.04800
H1740       H  0.42359844  0.70884020  0.67183991     0.08000
H1741       H  0.43818535  0.68095701  0.66541515     0.08000
H1742       H  0.32244119  0.59081149  0.74905298     0.08000
H1743       H  0.33211522  0.56344605  0.73441826     0.08000
H1744       H  0.30063598  0.57143560  0.72279894     0.04700
C1745       C  0.23696929  0.59748704  0.70391130    -0.21100
C1746       C  0.23154741  0.62084518  0.71475696    -0.07600
C1747       C  0.23727460  0.64911689  0.70130134     0.13200
C1748       C  0.24943531  0.65353577  0.67887005    -0.21100
C1749       C  0.25584836  0.63082222  0.66868755    -0.07600
C1750       C  0.24815451  0.60161468  0.68115927     0.13200
C1751       C  0.24936681  0.57349507  0.67039987    -0.24500
H1752       H  0.22975714  0.57413996  0.71233648     0.14500
H1753       H  0.25312555  0.67479831  0.66883604     0.14500
C1754       C  0.22925351  0.67442265  0.70944029    -0.24400
H1755       H  0.24127944  0.55212980  0.68249767     0.04800
H1756       H  0.27500483  0.58122706  0.66510044     0.08000
H1757       H  0.23232624  0.56481016  0.65511802     0.08000
H1758       H  0.24692956  0.68912203  0.72337550     0.08000
H1759       H  0.20296683  0.66247977  0.71513700     0.08000
H1760       H  0.23213747  0.69240127  0.69554320     0.04700
C1761       C  0.40092386  0.75723496  0.68159524    -0.21100
C1762       C  0.37076546  0.74854471  0.67005086    -0.07600
C1763       C  0.34738498  0.75407115  0.68104681     0.13200
C1764       C  0.35413423  0.76631669  0.70362518    -0.21100
C1765       C  0.38402199  0.77392284  0.71574622    -0.07600
C1766       C  0.40795326  0.76935761  0.70396826     0.13200
C1767       C  0.44196147  0.77814571  0.71388476    -0.24500
H1768       H  0.41967716  0.75469056  0.67282505     0.14500
H1769       H  0.33658168  0.77185999  0.71105518     0.14500
C1770       C  0.31582034  0.74826125  0.66895766    -0.24400
H1771       H  0.45806027  0.77635759  0.70092973     0.04800
H1772       H  0.43920397  0.76046933  0.72788801     0.08000
H1773       H  0.45583681  0.80387563  0.71995089     0.08000
H1774       H  0.30069651  0.72222103  0.66400388     0.08000
H1775       H  0.32217592  0.76431029  0.65327703     0.08000
H1776       H  0.30028027  0.75375449  0.68007287     0.04700
C1777       C  0.41332242  0.93559959  0.34364644    -0.21100
C1778       C  0.42998046  0.96862542  0.33631141    -0.07600
C1779       C  0.43326785  0.99282854  0.35185436     0.13200
C1780       C  0.42032897  0.98326306  0.37410818    -0.21100
C1781       C  0.40324329  0.95007113  0.38152509    -0.07600
C1782       C  0.40049664  0.92588493  0.36585642     0.13200
C1783       C  0.38312376  0.88929818  0.37156105    -0.24500
H1784       H  0.41096408  0.91697399  0.33200905     0.14500
H1785       H  0.42207222  0.00210389  0.38505861     0.14500
C1786       C  0.44883943  0.52944599  0.34509729    -0.24400
H1787       H  0.38152826  0.87463755  0.35646192     0.04800
H1788       H  0.35709378  0.87962356  0.37711171     0.08000
H1789       H  0.39750976  0.88435258  0.38498839     0.08000
H1790       H  0.43662493  0.03207759  0.32981868     0.08000
H1791       H  0.47559186  0.53974816  0.34156308     0.08000
H1792       H  0.44740624  0.54440292  0.35893489     0.04700
C1793       C  0.05524508  0.57855747  0.37928483    -0.21100
C1794       C  0.05058410  0.60548363  0.37974248    -0.07600
C1795       C  0.03661241  0.61255844  0.35963255     0.13200
C1796       C  0.03502676  0.59748814  0.33884869    -0.21100
C1797       C  0.04367539  0.57313737  0.33786995    -0.07600
C1798       C  0.05165720  0.56220173  0.35885400     0.13200
C1799       C  0.05553046  0.53268320  0.36034333    -0.24500
H1800       H  0.06184199  0.57003784  0.39492826     0.14500
H1801       H  0.02627350  0.60444976  0.32337109     0.14500
C1802       C  0.02395804  0.63642065  0.35890028    -0.24400
H1803       H  0.05954605  0.52643557  0.37831251     0.04800
H1804       H  0.07767146  0.53783748  0.35034007     0.08000
H1805       H  0.03225219  0.51125277  0.35364736     0.08000
H1806       H  0.03914405  0.65709200  0.34672012     0.08000
H1807       H  0.02451565  0.64680763  0.37579723     0.08000
H1808       H  0.99753633  0.62349459  0.35271433     0.04700
C1809       C  0.02522000  0.93248398  0.38460975    -0.21100
C1810       C  0.05920930  0.95097119  0.39062661    -0.07600
C1811       C  0.08126033  0.97598348  0.37529083     0.13200
C1812       C  0.07058110  0.97723353  0.35278101    -0.21100
C1813       C  0.03684152  0.95782874  0.34596645    -0.07600
C1814       C  0.01351746  0.93627422  0.36271116     0.13200
C1815       C  0.47650906  0.91596760  0.35777998    -0.24500
H1816       H  0.00830717  0.91304323  0.39630053     0.14500
H1817       H  0.08889800  0.99472085  0.34075477     0.14500
C1818       C  0.11739352  0.99924479  0.38164408    -0.24400
H1819       H  0.46236001  0.90009574  0.37270840     0.04800
H1820       H  0.47144855  0.89981795  0.34286611     0.08000
H1821       H  0.46727773  0.93310940  0.35405860     0.08000
H1822       H  0.13380843  0.99542352  0.37021887     0.08000
H1823       H  0.12313499  0.99572414  0.39984212     0.08000
H1824       H  0.12219554  0.52542077  0.37978848     0.04700
C1825       C  0.25621060  0.77916523  0.46396381    -0.21100
C1826       C  0.28532756  0.78069071  0.45613359    -0.07600
C1827       C  0.28288602  0.75120242  0.44856992     0.13200
C1828       C  0.25182481  0.72125247  0.44935730    -0.21100
C1829       C  0.22270541  0.71976076  0.45716754    -0.07600
C1830       C  0.22521183  0.74920029  0.46487798     0.13200
C1831       C  0.19577228  0.74890506  0.47536657    -0.24500
H1832       H  0.25791505  0.80152280  0.46995762     0.14500
H1833       H  0.25010792  0.69888336  0.44337501     0.14500
C1834       C  0.31251373  0.75138874  0.43852372    -0.24400
H1835       H  0.20255159  0.77359911  0.48164584     0.04800
H1836       H  0.18666479  0.73130710  0.49026240     0.08000
H1837       H  0.17521427  0.74150245  0.46251419     0.08000
H1838       H  0.33273644  0.75876105  0.45164643     0.08000
H1839       H  0.32201027  0.76896050  0.42362783     0.08000
H1840       H  0.30582333  0.72665612  0.43237561     0.04700
C1841       C  0.48367317  0.72375675  0.47140715    -0.21100
C1842       C  0.99977520  0.71884929  0.45293942    -0.07600
C1843       C  0.01125473  0.74203848  0.43445968     0.13200
C1844       C  0.00730564  0.76965243  0.43529174    -0.21100
C1845       C  0.49285980  0.77546050  0.45436270    -0.07600
C1846       C  0.48011359  0.75161540  0.47239080     0.13200
C1847       C  0.46394447  0.75580037  0.49313370    -0.24500
H1848       H  0.47428049  0.70594703  0.48555806     0.14500
H1849       H  0.01665421  0.78750388  0.42115034     0.14500
C1850       C  0.02742501  0.73794576  0.41370986    -0.24400
H1851       H  0.45611258  0.73509448  0.50580456     0.04800
H1852       H  0.44125865  0.75659160  0.48768555     0.08000
H1853       H  0.48185906  0.77894898  0.50198937     0.08000
H1854       H  0.01029742  0.71386186  0.40563344     0.08000
H1855       H  0.05121799  0.73929396  0.41899979     0.08000
H1856       H  0.03346202  0.75764376  0.40045751     0.04700
C1857       C  0.23475106  0.99368552  0.44112902    -0.21100
C1858       C  0.22792015  0.50607426  0.46075409    -0.07600
C1859       C  0.24876170  0.51268684  0.48041262     0.13200
C1860       C  0.27650061  0.50826862  0.47960304    -0.21100
C1861       C  0.28380626  0.99664565  0.45963876    -0.07600
C1862       C  0.26224115  0.98896645  0.44025060     0.13200
C1863       C  0.26824279  0.97639409  0.41845593    -0.24500
H1864       H  0.21824195  0.98758053  0.42620697     0.14500
H1865       H  0.29248536  0.51363292  0.49477469     0.14500
C1866       C  0.24160654  0.52384706  0.50234896    -0.24400
H1867       H  0.24953664  0.97270456  0.40473875     0.04800
H1868       H  0.26634507  0.95224971  0.42207078     0.08000
H1869       H  0.29342999  0.99431380  0.41175969     0.08000
H1870       H  0.21618535  0.50542134  0.50841507     0.08000
H1871       H  0.24332638  0.54793848  0.49901266     0.08000
H1872       H  0.25987218  0.52712356  0.51630177     0.04700
C1873       C  0.10316485  0.53370930  0.72298801    -0.21100
C1874       C  0.11354995  0.56517327  0.73088752    -0.07600
C1875       C  0.10078846  0.58379369  0.72014774     0.13200
C1876       C  0.08121366  0.57212649  0.69996242    -0.21100
C1877       C  0.07499984  0.54265068  0.68995501    -0.07600
C1878       C  0.08466436  0.52231076  0.70246667     0.13200
C1879       C  0.07686577  0.48906315  0.69435495    -0.24500
H1880       H  0.11407294  0.52023431  0.73093944     0.14500
H1881       H  0.07286623  0.58732913  0.69114109     0.14500
C1882       C  0.11039623  0.61726682  0.72895210    -0.24400
H1883       H  0.08569321  0.47668088  0.70681949     0.04800
H1884       H  0.08931576  0.49146452  0.67781106     0.08000
H1885       H  0.04952204  0.47295812  0.69260215     0.08000
H1886       H  0.13792615  0.63400682  0.72830148     0.08000
H1887       H  0.10219436  0.61475883  0.74704494     0.08000
H1888       H  0.09849157  0.62881250  0.71854381     0.04700
C1889       C  0.41367659  0.53645632  0.69855034    -0.21100
C1890       C  0.43699109  0.56629881  0.70908368    -0.07600
C1891       C  0.46752621  0.58722218  0.69741081     0.13200
C1892       C  0.47682929  0.57434458  0.67966545    -0.21100
C1893       C  0.45466744  0.54314472  0.67086956    -0.07600
C1894       C  0.42179677  0.52500783  0.67931952     0.13200
C1895       C  0.39519374  0.99518909  0.66790192    -0.24500
H1896       H  0.38827463  0.52249780  0.70459855     0.14500
H1897       H  0.50136731  0.58933899  0.67218375     0.14500
C1898       C  0.49005900  0.62367336  0.70155797    -0.24400
H1899       H  0.37047442  0.98615708  0.67583866     0.04800
H1900       H  0.40003227  0.97454183  0.66878712     0.08000
H1901       H  0.39328866  0.00161757  0.64956909     0.08000
H1902       H  0.51367449  0.62825402  0.71015043     0.08000
H1903       H  0.47835291  0.63453809  0.71160395     0.08000
H1904       H  0.49628618  0.63732837  0.68476777     0.04700
C1905       C  0.48923420  0.91557652  0.69999455    -0.21100
C1906       C  0.46941946  0.92807263  0.69102864    -0.07600
C1907       C  0.44327643  0.92527724  0.70474100     0.13200
C1908       C  0.43505740  0.90639477  0.72534798    -0.21100
C1909       C  0.45204457  0.89005084  0.73234991    -0.07600
C1910       C  0.48117605  0.89708640  0.72053068     0.13200
C1911       C  0.50198536  0.88210048  0.72774701    -0.24500
H1912       H  0.51001676  0.91829657  0.69019264     0.14500
H1913       H  0.41272704  0.90104458  0.73444979     0.14500
C1914       C  0.42349443  0.94139908  0.69771941    -0.24400
H1915       H  0.52824528  0.90200700  0.73088555     0.04800
H1916       H  0.50146027  0.86611416  0.71390532     0.08000
H1917       H  0.49271444  0.86697330  0.74368332     0.08000
H1918       H  0.40918983  0.93044874  0.68158612     0.08000
H1919       H  0.44073653  0.96831755  0.69522611     0.08000
H1920       H  0.40523396  0.93788824  0.71105461     0.04700
C1921       C  0.22840342  0.58129321  0.53196344    -0.21100
C1922       C  0.22248496  0.60366116  0.51917971    -0.07600
C1923       C  0.24062065  0.63722595  0.52517200     0.13200
C1924       C  0.26013983  0.64670721  0.54547091    -0.21100
C1925       C  0.26338415  0.62365334  0.55952397    -0.07600
C1926       C  0.24892824  0.59082363  0.55184012     0.13200
C1927       C  0.25267091  0.56494681  0.56527757    -0.24500
H1928       H  0.21354697  0.55534231  0.52800475     0.14500
H1929       H  0.27244083  0.67227300  0.55054083     0.14500
C1930       C  0.23812580  0.66315385  0.51114297    -0.24400
H1931       H  0.23823142  0.54037669  0.55722819     0.04800
H1932       H  0.24342258  0.56255625  0.58306553     0.08000
H1933       H  0.27934210  0.57177208  0.56584454     0.08000
H1934       H  0.26358543  0.68382705  0.50700751     0.08000
H1935       H  0.22502528  0.65306527  0.49465248     0.08000
H1936       H  0.22466837  0.67264550  0.52087330     0.04700
C1937       C  0.11236097  0.58075475  0.54819188    -0.21100
C1938       C  0.10300998  0.55524676  0.53225257    -0.07600
C1939       C  0.07454866  0.52432255  0.53722802     0.13200
C1940       C  0.06275354  0.51745315  0.55984757    -0.21100
C1941       C  0.07736581  0.54121464  0.57720912    -0.07600
C1942       C  0.10063356  0.57405944  0.57078019     0.13200
C1943       C  0.11438426  0.60190804  0.58758726    -0.24500
H1944       H  0.13186528  0.60562144  0.54366580     0.14500
H1945       H  0.04111048  0.49362380  0.56372446     0.14500
C1946       C  0.05393324  0.49968463  0.51907313    -0.24400
H1947       H  0.13339945  0.62567067  0.57958136     0.04800
H1948       H  0.12649566  0.59650800  0.60248660     0.08000
H1949       H  0.09388260  0.60523711  0.59365690     0.08000
H1950       H  0.05616050  0.47739352  0.52126065     0.08000
H1951       H  0.06093608  0.51031221  0.50142071     0.08000
H1952       H  0.02707955  0.99266051  0.52048046     0.04700
C1953       C  0.37528361  0.59645951  0.57315652    -0.21100
C1954       C  0.38068649  0.62851235  0.57195884    -0.07600
C1955       C  0.39171511  0.64663514  0.55091829     0.13200
C1956       C  0.40136766  0.63411888  0.53304793    -0.21100
C1957       C  0.39969647  0.60348215  0.53515845    -0.07600
C1958       C  0.38323708  0.58314966  0.55481432     0.13200
C1959       C  0.37302557  0.54721051  0.55741593    -0.24500
H1960       H  0.36443395  0.58138160  0.58852529     0.14500
H1961       H  0.40933478  0.64836043  0.51719416     0.14500
C1962       C  0.39219152  0.67857496  0.54659324    -0.24400
H1963       H  0.34573863  0.53229465  0.56062143     0.04800
H1964       H  0.38658898  0.54390776  0.57235982     0.08000
H1965       H  0.37754764  0.53678103  0.54213271     0.08000
H1966       H  0.41137617  0.69774847  0.55779028     0.08000
H1967       H  0.36720007  0.67510768  0.55005088     0.08000
H1968       H  0.39858226  0.68772973  0.52851993     0.04700
C1969       C  0.43542954  0.51639311  0.53254445    -0.21100
C1970       C  0.45983828  0.54516292  0.52130930    -0.07600
C1971       C  0.49264271  0.56134579  0.53039880     0.13200
C1972       C  0.49873167  0.55251405  0.55250589    -0.21100
C1973       C  0.47247427  0.52815010  0.56604212    -0.07600
C1974       C  0.44064590  0.50859645  0.55528631     0.13200
C1975       C  0.41127162  0.48103324  0.56780325    -0.24500
H1976       H  0.41027344  0.50373444  0.52526082     0.14500
H1977       H  0.52387663  0.56644111  0.55965184     0.14500
C1978       C  0.52077813  0.59026346  0.51797788    -0.24400
H1979       H  0.38865465  0.46856832  0.55650983     0.04800
H1980       H  0.40447308  0.99279770  0.58432442     0.08000
H1981       H  0.91713111  0.46237512  0.57413344     0.08000
H1982       H  0.54139516  0.58530736  0.51539426     0.08000
H1983       H  0.51260440  0.59484891  0.50079592     0.08000
H1984       H  0.53034298  0.61278236  0.52837939     0.04700
C1985       C  0.42514536  0.78175569  0.53456098    -0.21100
C1986       C  0.40222908  0.78522724  0.52022495    -0.07600
C1987       C  0.36786400  0.76555658  0.52464046     0.13200
C1988       C  0.35745342  0.74540825  0.54453304    -0.21100
C1989       C  0.38076834  0.74615474  0.56099597    -0.07600
C1990       C  0.41532594  0.76429723  0.55560935     0.13200
C1991       C  0.44256360  0.76843401  0.57246993    -0.24500
H1992       H  0.45161408  0.79742121  0.53112062     0.14500
H1993       H  0.33092021  0.73084406  0.54794770     0.14500
C1994       C  0.34240595  0.76796050  0.50943406    -0.24400
H1995       H  0.46790941  0.78427565  0.56523844     0.04800
H1996       H  0.44016753  0.74440498  0.57718042     0.08000
H1997       H  0.44130100  0.78043411  0.58825092     0.08000
H1998       H  0.34476058  0.76193467  0.49155261     0.08000
H1999       H  0.34662479  0.79332685  0.50982948     0.08000
H2000       H  0.31644115  0.75058536  0.51510134     0.04700
C2001       C  0.48716329  0.91063455  0.54332681    -0.21100
C2002       C  0.45605845  0.90195530  0.53255522    -0.07600
C2003       C  0.43170504  0.90343748  0.54618439     0.13200
C2004       C  0.43930501  0.91335998  0.56899807    -0.21100
C2005       C  0.47010697  0.92195349  0.57948986    -0.07600
C2006       C  0.49420312  0.91980530  0.56658530     0.13200
C2007       C  0.02672597  0.92544140  0.57719478    -0.24500
H2008       H  0.50529710  0.90750803  0.53428130     0.14500
H2009       H  0.42040020  0.91411650  0.57900713     0.14500
C2010       C  0.39645880  0.89282022  0.53799066    -0.24400
H2011       H  0.04196081  0.92152740  0.56469862     0.04800
H2012       H  0.02125651  0.90780589  0.59185370     0.08000
H2013       H  0.04218321  0.95087514  0.58343648     0.08000
H2014       H  0.38330123  0.86703126  0.53199350     0.08000
H2015       H  0.39698860  0.91011982  0.52441663     0.08000
H2016       H  0.38088554  0.89340877  0.55191360     0.04700
C2017       C  0.42236250  0.54655251  0.11814303    -0.21100
C2018       C  0.39280042  0.54654288  0.12275380    -0.07600
C2019       C  0.39517684  0.57739923  0.12612939     0.13200
C2020       C  0.42683094  0.60674877  0.12583536    -0.21100
C2021       C  0.45646101  0.60663158  0.12165861    -0.07600
C2022       C  0.45373545  0.57603880  0.11679303     0.13200
C2023       C  0.48322145  0.57442900  0.10837859    -0.24500
H2024       H  0.42074528  0.52329402  0.11477150     0.14500
H2025       H  0.42847571  0.63004540  0.12909621     0.14500
C2026       C  0.36467564  0.57969751  0.13070673    -0.24400
H2027       H  0.47632870  0.54884153  0.10428594     0.04800
H2028       H  0.50341028  0.58348749  0.12153152     0.08000
H2029       H  0.49290756  0.58983490  0.09245983     0.08000
H2030       H  0.35139126  0.56406269  0.14593539     0.08000
H2031       H  0.34766122  0.57155872  0.11541081     0.08000
H2032       H  0.37133693  0.60538096  0.13423944     0.04700
C2033       C  0.09664454  0.86024386  0.37792785    -0.21100
C2034       C  0.11817362  0.89180960  0.38701834    -0.07600
C2035       C  0.14670580  0.91408929  0.37373234     0.13200
C2036       C  0.15246076  0.90396140  0.35280265    -0.21100
C2037       C  0.13094324  0.87248604  0.34410185    -0.07600
C2038       C  0.10266618  0.85032201  0.35703073     0.13200
C2039       C  0.07903873  0.81568971  0.34957885    -0.24500
H2040       H  0.07349202  0.84330770  0.38630284     0.14500
H2041       H  0.17414058  0.92117186  0.34291901     0.14500
C2042       C  0.17116490  0.94917953  0.38049793    -0.24400
H2043       H  0.05795157  0.80186739  0.36161996     0.04800
H2044       H  0.09324998  0.80284312  0.34961543     0.08000
H2045       H  0.06818243  0.81555824  0.33227367     0.08000
H2046       H  0.18621154  0.94927230  0.39565574     0.08000
H2047       H  0.15800507  0.96263903  0.38390163     0.08000
H2048       H  0.18938265  0.96332457  0.36669568     0.04700
C2049       C  0.15303583  0.75865028  0.36940099    -0.21100
C2050       C  0.12839198  0.75678301  0.35388659    -0.07600
C2051       C  0.09447498  0.73925188  0.36048290     0.13200
C2052       C  0.08643154  0.72492936  0.38260808    -0.21100
C2053       C  0.11015668  0.72176174  0.39628453    -0.07600
C2054       C  0.14415520  0.74039934  0.39021729     0.13200
C2055       C  0.17059933  0.73870664  0.40471590    -0.24500
H2056       H  0.17911300  0.77278684  0.36459182     0.14500
H2057       H  0.06024826  0.70963759  0.38696498     0.14500
C2058       C  0.06625881  0.73070386  0.34326864    -0.24400
H2059       H  0.19600409  0.75498194  0.39768327     0.04800
H2060       H  0.16573000  0.71308463  0.40533090     0.08000
H2061       H  0.17030092  0.74671725  0.42239732     0.08000
H2062       H  0.06878827  0.71755016  0.32864029     0.08000
H2063       H  0.06615919  0.75272100  0.33639878     0.08000
H2064       H  0.04139053  0.71428630  0.35102173     0.04700
C2065       C  0.25025083  0.85247563  0.36933031    -0.21100
C2066       C  0.24646734  0.87469308  0.35455716    -0.07600
C2067       C  0.25886457  0.90732253  0.36214605     0.13200
C2068       C  0.27729960  0.91733485  0.38291672    -0.21100
C2069       C  0.28507690  0.89631697  0.39576565    -0.07600
C2070       C  0.26974542  0.86299777  0.38955897     0.13200
C2071       C  0.27651860  0.83919660  0.40304942    -0.24500
H2072       H  0.23981605  0.82708435  0.36434155     0.14500
H2073       H  0.28983611  0.94312668  0.38739498     0.14500
C2074       C  0.25443127  0.93242409  0.34824355    -0.24400
H2075       H  0.26238659  0.81395896  0.39597714     0.04800
H2076       H  0.26881575  0.83780799  0.42115341     0.08000
H2077       H  0.30352714  0.84750847  0.40247718     0.08000
H2078       H  0.22743911  0.92305914  0.34514805     0.08000
H2079       H  0.26752235  0.93770146  0.33158870     0.08000
H2080       H  0.26498574  0.95616702  0.35733130     0.04700
C2081       C  0.06114910  0.95680335  0.19786192    -0.21100
C2082       C  0.05996027  0.92646445  0.19952358    -0.07600
C2083       C  0.04393112  0.90548196  0.21909134     0.13200
C2084       C  0.03636650  0.91837082  0.23790428    -0.21100
C2085       C  0.04214973  0.95051189  0.23718353    -0.07600
C2086       C  0.05231134  0.96896332  0.21628373     0.13200
C2087       C  0.05305367  0.00113649  0.21287613    -0.24500
H2088       H  0.06863069  0.97132076  0.18211702     0.14500
H2089       H  0.02611866  0.90334029  0.25337290     0.14500
C2090       C  0.03365210  0.86935301  0.22047227    -0.24400
H2091       H  0.05825584  0.01042310  0.19476023     0.04800
H2092       H  0.07320051  0.02013727  0.22374421     0.08000
H2093       H  0.02779760  0.49757927  0.21712990     0.08000
H2094       H  0.05526186  0.86561174  0.22055390     0.08000
H2095       H  0.01651264  0.85592872  0.20594244     0.08000
H2096       H  0.51972024  0.85715626  0.23644193     0.04700
C2097       C  0.11134385  0.84727134  0.19519811    -0.21100
C2098       C  0.13134226  0.87992235  0.18751903    -0.07600
C2099       C  0.16012501  0.90116727  0.20061950     0.13200
C2100       C  0.16407313  0.89174349  0.22310977    -0.21100
C2101       C  0.14040205  0.86097158  0.23262867    -0.07600
C2102       C  0.11483758  0.83756975  0.21777078     0.13200
C2103       C  0.08961924  0.80300379  0.22562061    -0.24500
H2104       H  0.08953114  0.83085035  0.18491445     0.14500
H2105       H  0.18499030  0.90926455  0.23354920     0.14500
C2106       C  0.18458369  0.93552529  0.19213268    -0.24400
H2107       H  0.07123073  0.78883111  0.21177773     0.04800
H2108       H  0.07539541  0.80375433  0.24039039     0.08000
H2109       H  0.10260301  0.78944914  0.23059649     0.08000
H2110       H  0.18431569  0.95383046  0.20356564     0.08000
H2111       H  0.17845841  0.94001603  0.17425492     0.08000
H2112       H  0.21014008  0.93913194  0.19225676     0.04700
C2113       C  0.03334593  0.56764640  0.21036556    -0.21100
C2114       C  0.05676719  0.57058559  0.22754187    -0.07600
C2115       C  0.09126234  0.58882424  0.22231264     0.13200
C2116       C  0.10103901  0.60668088  0.20138959    -0.21100
C2117       C  0.07756440  0.60897846  0.18681485    -0.07600
C2118       C  0.04338721  0.58720492  0.19033363     0.13200
C2119       C  0.01750893  0.58660629  0.17393633    -0.24500
H2120       H  0.00685366  0.55169099  0.21320713     0.14500
H2121       H  0.12744972  0.62324051  0.19822863     0.14500
C2122       C  0.11808962  0.59168955  0.23899029    -0.24400
H2123       H  0.49199825  0.56754681  0.17882610     0.04800
H2124       H  0.02194130  0.58047314  0.15666493     0.08000
H2125       H  0.01936852  0.61102362  0.17330309     0.08000
H2126       H  0.11463725  0.56699352  0.24301498     0.08000
H2127       H  0.11718896  0.60328566  0.25509012     0.08000
H2128       H  0.14350815  0.60723005  0.23179791     0.04700
C2129       C  0.09799660  0.71750688  0.21632035    -0.21100
C2130       C  0.12354628  0.72631315  0.20016986    -0.07600
C2131       C  0.15547655  0.75395533  0.20501920     0.13200
C2132       C  0.16233732  0.76710490  0.22723400    -0.21100
C2133       C  0.13773299  0.75498654  0.24434198    -0.07600
C2134       C  0.10473148  0.73044271  0.23846116     0.13200
C2135       C  0.07659749  0.71648410  0.25549609    -0.24500
H2136       H  0.07279783  0.69792080  0.21221333     0.14500
H2137       H  0.18699667  0.78793129  0.23094185     0.14500
C2138       C  0.18146289  0.77257554  0.18697618    -0.24400
H2139       H  0.05322204  0.69560387  0.24828048     0.04800
H2140       H  0.07085178  0.73568289  0.26018863     0.08000
H2141       H  0.08366322  0.70714381  0.27116947     0.08000
H2142       H  0.17013320  0.76815116  0.16941643     0.08000
H2143       H  0.20125114  0.76602211  0.18840949     0.08000
H2144       H  0.19337681  0.79955915  0.18951549     0.04700
C2145       C  0.43479135  0.93716551  0.21262621    -0.21100
C2146       C  0.43670597  0.96372229  0.22452683    -0.07600
C2147       C  0.42374273  0.98227021  0.21339093     0.13200
C2148       C  0.40574434  0.97108545  0.19248730    -0.21100
C2149       C  0.39892589  0.94117999  0.18308308    -0.07600
C2150       C  0.41572743  0.92549900  0.19226693     0.13200
C2151       C  0.41091881  0.89458764  0.18168655    -0.24500
H2152       H  0.44629254  0.92387244  0.22003176     0.14500
H2153       H  0.39274342  0.98307960  0.18528776     0.14500
C2154       C  0.42588761  0.51217379  0.22385775    -0.24400
H2155       H  0.42569083  0.88516058  0.19098015     0.04800
H2156       H  0.41924813  0.89998119  0.16358113     0.08000
H2157       H  0.38415569  0.87489220  0.18208155     0.08000
H2158       H  0.45240787  0.53119761  0.22707664     0.08000
H2159       H  0.41197649  0.50507875  0.24025612     0.08000
H2160       H  0.41481762  0.52351003  0.21234073     0.04700
C2161       C  0.27856932  0.90229175  0.21154546    -0.21100
C2162       C  0.28124418  0.87719689  0.20090497    -0.07600
C2163       C  0.27271100  0.84814642  0.21447122     0.13200
C2164       C  0.25829133  0.84389854  0.23623848    -0.21100
C2165       C  0.25423667  0.86850996  0.24577151    -0.07600
C2166       C  0.26588014  0.89869204  0.23358101     0.13200
C2167       C  0.26707020  0.92824875  0.24407433    -0.24500
H2168       H  0.28876867  0.92632066  0.20330889     0.14500
H2169       H  0.24993572  0.82100896  0.24587945     0.14500
C2170       C  0.27962430  0.82179241  0.20722270    -0.24400
H2171       H  0.28134945  0.95097927  0.23334396     0.04800
H2172       H  0.27955270  0.93297685  0.26129514     0.08000
H2173       H  0.24154536  0.92420394  0.24563498     0.08000
H2174       H  0.30619174  0.83286435  0.20233440     0.08000
H2175       H  0.26242500  0.80748595  0.19297876     0.08000
H2176       H  0.27515874  0.80370887  0.22142381     0.04700
C2177       C  0.45152211  0.85060704  0.11553195    -0.21100
C2178       C  0.44992113  0.82018087  0.11935543    -0.07600
C2179       C  0.41811621  0.79158614  0.12245726     0.13200
C2180       C  0.38930433  0.79453484  0.12288393    -0.21100
C2181       C  0.39123788  0.82531412  0.12009440    -0.07600
C2182       C  0.42281697  0.85348673  0.11545115     0.13200
C2183       C  0.42642499  0.88643832  0.10918974    -0.24500
H2184       H  0.47566018  0.87253485  0.11253220     0.14500
H2185       H  0.36511307  0.77265830  0.12581323     0.14500
C2186       C  0.41447705  0.75814754  0.12608997    -0.24400
H2187       H  0.45247960  0.90503656  0.10442137     0.04800
H2188       H  0.41979465  0.89624483  0.12389845     0.08000
H2189       H  0.40988681  0.88374350  0.09418678     0.08000
H2190       H  0.42951960  0.75839352  0.14138662     0.08000
H2191       H  0.42313999  0.75154271  0.11061684     0.08000
H2192       H  0.38803957  0.73865895  0.12898863     0.04700
C2193       C  0.20639110  0.60957248  0.12508430    -0.21100
C2194       C  0.17592957  0.60935086  0.12362606    -0.07600
C2195       C  0.14585951  0.57851998  0.12164803     0.13200
C2196       C  0.14705718  0.54925300  0.12161981    -0.21100
C2197       C  0.17736093  0.54924391  0.12360526    -0.07600
C2198       C  0.20752535  0.58008971  0.12542166     0.13200
C2199       C  0.24082629  0.58223002  0.12903396    -0.24500
H2200       H  0.22951928  0.63302293  0.12662207     0.14500
H2201       H  0.12379624  0.52593400  0.12002546     0.14500
C2202       C  0.11228060  0.57606014  0.11879547    -0.24400
H2203       H  0.26143031  0.60807787  0.13137933     0.04800
H2204       H  0.24698613  0.57260599  0.11396476     0.08000
H2205       H  0.24007909  0.56775655  0.14470656     0.08000
H2206       H  0.11268882  0.59151774  0.10382286     0.08000
H2207       H  0.10604726  0.58420642  0.13465567     0.08000
H2208       H  0.09186816  0.55033958  0.11569200     0.04700
C2209       C  0.24085875  0.92494934  0.88294489    -0.21100
C2210       C  0.20770231  0.91227746  0.88977031    -0.07600
C2211       C  0.18570276  0.91705277  0.87488726     0.13200
C2212       C  0.19864067  0.93808725  0.85548977    -0.21100
C2213       C  0.23279902  0.95415287  0.85070531    -0.07600
C2214       C  0.25356270  0.94554790  0.86357618     0.13200
C2215       C  0.29017242  0.96040917  0.85867976    -0.24500
H2216       H  0.25783893  0.92062485  0.89360364     0.14500
H2217       H  0.18276374  0.94468671  0.84545976     0.14500
C2218       C  0.14882490  0.90024731  0.87912768    -0.24400
H2219       H  0.29538352  0.94048733  0.85501224     0.04800
H2220       H  0.30462048  0.47038542  0.87195202     0.08000
H2221       H  0.29629490  0.47384273  0.84202464     0.08000
H2222       H  0.14419652  0.90854573  0.89554881     0.08000
H2223       H  0.13831569  0.87319280  0.87965419     0.08000
H2224       H  0.13544410  0.90582702  0.86517722     0.04700
C2225       C  0.08567686  0.77047800  0.87950828    -0.21100
C2226       C  0.08552498  0.79548287  0.89191083    -0.07600
C2227       C  0.06766940  0.81050633  0.88307753     0.13200
C2228       C  0.04983095  0.79945455  0.86233449    -0.21100
C2229       C  0.04659482  0.77173724  0.85162432    -0.07600
C2230       C  0.06578111  0.75795504  0.85963595     0.13200
C2231       C  0.06327597  0.72856860  0.84815197    -0.24500
H2232       H  0.10022448  0.75972473  0.88595183     0.14500
H2233       H  0.03394610  0.80899139  0.85643399     0.14500
C2234       C  0.06373443  0.83514661  0.89661623    -0.24400
H2235       H  0.07996024  0.72077181  0.85661794     0.04800
H2236       H  0.07066470  0.73495819  0.82986267     0.08000
H2237       H  0.03721725  0.70739685  0.84893552     0.08000
H2238       H  0.08794128  0.85821375  0.89891776     0.08000
H2239       H  0.05331839  0.82438459  0.91380219     0.08000
H2240       H  0.04645775  0.84191582  0.88781370     0.04700
C2241       C  0.24676699  0.80686396  0.86352930    -0.21100
C2242       C  0.22589184  0.77513640  0.85498501    -0.07600
C2243       C  0.19348076  0.75557829  0.86386769     0.13200
C2244       C  0.18375963  0.76701419  0.88238022    -0.21100
C2245       C  0.20608512  0.79716656  0.89289606    -0.07600
C2246       C  0.23757212  0.81805567  0.88255540     0.13200
C2247       C  0.26203989  0.85178004  0.89153099    -0.24500
H2248       H  0.27187455  0.82154875  0.85684609     0.14500
H2249       H  0.15914001  0.75123612  0.88951401     0.14500
C2250       C  0.16998698  0.72157618  0.85489095    -0.24400
H2251       H  0.28458319  0.86496974  0.88063717     0.04800
H2252       H  0.27061142  0.84976044  0.90922401     0.08000
H2253       H  0.24995193  0.86682468  0.89149995     0.08000
H2254       H  0.18125937  0.70579707  0.85720106     0.08000
H2255       H  0.16476685  0.72343286  0.83636177     0.08000
H2256       H  0.14573089  0.70929828  0.86396272     0.04700
C2257       C  0.30946059  0.55664558  0.05730254    -0.21100
C2258       C  0.27697460  0.54452178  0.06528769    -0.07600
C2259       C  0.25614709  0.55419891  0.05363267     0.13200
C2260       C  0.26683044  0.57251145  0.03303370    -0.21100
C2261       C  0.29801946  0.58184341  0.02359260    -0.07600
C2262       C  0.31988176  0.57420300  0.03622951     0.13200
C2263       C  0.35351922  0.58298616  0.02733597    -0.24500
H2264       H  0.32498177  0.54833587  0.06590880     0.14500
H2265       H  0.24967689  0.57787847  0.02356170     0.14500
C2266       C  0.22110686  0.54224223  0.06159517    -0.24400
H2267       H  0.36762179  0.57605714  0.03979245     0.04800
H2268       H  0.36838530  0.60983154  0.02427466     0.08000
H2269       H  0.35045765  0.56998693  0.01103063     0.08000
H2270       H  0.22214316  0.55155035  0.07900896     0.08000
H2271       H  0.20612068  0.51489574  0.06200377     0.08000
H2272       H  0.20784180  0.55126413  0.05006221     0.04700
C2273       C  0.18819028  0.91632794  0.03960638    -0.21100
C2274       C  0.22141076  0.93010373  0.04764296    -0.07600
C2275       C  0.24573057  0.93307206  0.03161100     0.13200
C2276       C  0.23620453  0.92334320  0.00869376    -0.21100
C2277       C  0.20302544  0.90944934  0.00095009    -0.07600
C2278       C  0.17876980  0.90651932  0.01673706     0.13200
C2279       C  0.14274717  0.89383227  0.00989841    -0.24500
H2280       H  0.16929608  0.91489257  0.05066084     0.14500
H2281       H  0.25488630  0.92560296  0.99685036     0.14500
C2282       C  0.28230853  0.94731899  0.03786226    -0.24400
H2283       H  0.12797490  0.89513609  0.02409312     0.04800
H2284       H  0.13087554  0.86765004  0.00533531     0.08000
H2285       H  0.14129749  0.90863103  0.99512641     0.08000
H2286       H  0.28524469  0.93080870  0.05047286     0.08000
H2287       H  0.29339363  0.97249035  0.04475038     0.08000
H2288       H  0.29735421  0.94940638  0.02270379     0.04700
C2289       C  0.44468921  0.73879895  0.05510288    -0.21100
C2290       C  0.45500263  0.71812995  0.06547659    -0.07600
C2291       C  0.44233907  0.68633818  0.05674873     0.13200
C2292       C  0.42421066  0.67792352  0.03594758    -0.21100
C2293       C  0.41728707  0.70008308  0.02381099    -0.07600
C2294       C  0.42674408  0.73068306  0.03409151     0.13200
C2295       C  0.41966941  0.75578086  0.02287696    -0.24500
H2296       H  0.45477464  0.76337916  0.06179095     0.18100
H2297       H  0.41746028  0.65463979  0.02844295     0.14500
C2298       C  0.45036114  0.66221807  0.06838642    -0.24400
H2299       H  0.42866721  0.77790011  0.03363968     0.04800
H2300       H  0.39242953  0.74482545  0.02042188     0.08000
H2301       H  0.43245866  0.76425328  0.00607781     0.08000
H2302       H  0.44114289  0.65758012  0.08630915     0.08000
H2303       H  0.47774787  0.67224611  0.06839299     0.08000
H2304       H  0.43808942  0.63818505  0.05953388     0.04700
C2305       C  0.11103440  0.78778917  0.01961150    -0.21100
C2306       C  0.09677364  0.79940039  0.00274134    -0.07600
C2307       C  0.07355281  0.80815541  0.00973866     0.13200
C2308       C  0.06369339  0.80276625  0.03280343    -0.21100
C2309       C  0.07357658  0.78570343  0.04864787    -0.07600
C2310       C  0.10064920  0.78197534  0.04259466     0.13200
C2311       C  0.12152843  0.77567076  0.05996313    -0.24500
H2312       H  0.13134448  0.78409824  0.01503589     0.14500
H2313       H  0.04492176  0.80842286  0.03787966     0.14500
C2314       C  0.05762665  0.82147791  0.99301216    -0.24400
H2315       H  0.14843172  0.79392166  0.05721922     0.04800
H2316       H  0.11749660  0.75056780  0.05782611     0.08000
H2317       H  0.11640666  0.77910834  0.07786962     0.08000
H2318       H  0.04512081  0.80397541  0.97872148     0.08000
H2319       H  0.07672700  0.84585749  0.98593013     0.08000
H2320       H  0.03844180  0.82488020  0.00139749     0.04700
C2321       C  0.32321124  0.73351829  0.03020092    -0.21100
C2322       C  0.30197070  0.70110159  0.02285814    -0.07600
C2323       C  0.27345027  0.67967444  0.03598577     0.13200
C2324       C  0.26540182  0.69220925  0.05474890    -0.21100
C2325       C  0.28494645  0.72552821  0.06038692    -0.07600
C2326       C  0.31514378  0.74592282  0.04881079     0.13200
C2327       C  0.33795745  0.78169179  0.05444799    -0.24500
H2328       H  0.34535742  0.75013125  0.02051576     0.14500
H2329       H  0.24199658  0.67682353  0.06358202     0.14500
C2330       C  0.25144588  0.64382740  0.03045596    -0.24400
H2331       H  0.36317800  0.78603841  0.05928105     0.04800
H2332       H  0.32873418  0.78936305  0.06890590     0.08000
H2333       H  0.34007244  0.79740096  0.03917938     0.08000
H2334       H  0.26699293  0.63223088  0.03083131     0.08000
H2335       H  0.23936336  0.64104500  0.01324932     0.08000
H2336       H  0.23129676  0.63055012  0.04324935     0.04700
C2337       C  0.22243179  0.80652435  0.04303533    -0.21100
C2338       C  0.21483739  0.77386981  0.04605992    -0.07600
C2339       C  0.19517311  0.75092845  0.02853205     0.13200
C2340       C  0.18975702  0.76267412  0.00727456    -0.21100
C2341       C  0.20162407  0.79625740  0.00324604    -0.07600
C2342       C  0.21601675  0.81793154  0.02208320     0.13200
C2343       C  0.22406182  0.85304317  0.02079687    -0.24500
H2344       H  0.23415984  0.82382379  0.05675423     0.14500
H2345       H  0.17641587  0.74542046  0.99359880     0.14500
C2346       C  0.17983746  0.71400419  0.03162634    -0.24400
H2347       H  0.23278145  0.86545009  0.03764176     0.04800
H2348       H  0.20102143  0.85331370  0.01570824     0.08000
H2349       H  0.24434676  0.86737981  0.00831734     0.08000
H2350       H  0.16161853  0.70479447  0.04580687     0.08000
H2351       H  0.19894934  0.70701239  0.03518452     0.08000
H2352       H  0.16579704  0.70062543  0.01594891     0.04700
C2353       C  0.73152404  0.26499128  0.06598396     0.85700
C2354       C  0.70737789  0.23751680  0.08220981    -0.54500
C2355       C  0.72210446  0.22554339  0.09711906     0.08700
C2356       C  0.76062842  0.24328374  0.09515095     0.19600
C2357       C  0.75729731  0.29159251  0.08254427    -0.55200
C2358       C  0.77293864  0.28047148  0.09755803     0.08800
C2359       C  0.75182012  0.25217011  0.05484461    -0.54800
C2360       C  0.76629742  0.24037117  0.06972458     0.09300
H2361       H  0.68064685  0.22813233  0.08193551     0.13800
H2362       H  0.77285607  0.23376840  0.10725063    -0.00400
H2363       H  0.76495212  0.31744509  0.08177287     0.14200
H2364       H  0.75436211  0.25203056  0.03627274     0.13900
C2365       C  0.55031070  0.26761503  0.06897002     0.85700
C2366       C  0.55038963  0.29173921  0.08598855    -0.54500
C2367       C  0.52571529  0.27785301  0.10193058     0.08700
C2368       C  0.00280227  0.23962672  0.09978556     0.19600
C2369       C  0.55213388  0.24099633  0.08414310    -0.55200
C2370       C  0.52730908  0.22603413  0.10024060     0.08800
C2371       C  0.51471746  0.24853580  0.05915443    -0.54800
C2372       C  0.98993832  0.23458518  0.07473775     0.09300
H2373       H  0.56700327  0.31825309  0.08424439     0.13800
H2374       H  0.98253084  0.22786657  0.11262353    -0.00400
H2375       H  0.56860487  0.23163360  0.08111176     0.14200
H2376       H  0.50902895  0.24586037  0.04073818     0.13900
C2377       C  0.73170288  0.45136608  0.06958568     0.85700
C2378       C  0.75820190  0.45096799  0.08572687    -0.54500
C2379       C  0.77239003  0.47604958  0.10115669     0.08700
C2380       C  0.75653148  0.99895905  0.09956975     0.19600
C2381       C  0.70550375  0.44931858  0.08651176    -0.55200
C2382       C  0.71807997  0.47420968  0.10220575     0.08800
C2383       C  0.74755904  0.48610419  0.05953546    -0.54800
C2384       C  0.76053644  0.01125616  0.07440729     0.09300
H2385       H  0.76578793  0.43278819  0.08480053     0.13800
H2386       H  0.76719726  0.01913897  0.11223076    -0.00400
H2387       H  0.67907012  0.43114448  0.08584693     0.14200
H2388       H  0.74890957  0.99232298  0.04049950     0.13900
O2389       O  0.71284044  0.38000855  0.91927178    -0.82600
C2390       C  0.60847018  0.30459586  0.97861987     0.96800
O2391       O  0.60812065  0.32607402  0.96507569    -0.71700
O2392       O  0.66302046  0.37949126  0.97180005    -0.75300
Al2393     Al  0.64308711  0.35704120  0.94479470     1.49000
C2394       C  0.69292106  0.39403915  0.97833136     0.92100
O2395       O  0.71066119  0.33805521  0.97541894    -0.81500
O2396       O  0.66445694  0.29140327  0.91874668    -0.75000
Al2397     Al  0.71004182  0.35817242  0.94719916     1.90100
O2398       O  0.67524088  0.28728868  0.96615421    -0.74100
O2399       O  0.60777027  0.28635867  0.92615598    -0.74000
O2400       O  0.62218053  0.28894655  0.97281278    -0.79600
O2401       O  0.62043270  0.33685902  0.91778446    -0.77800
O2402       O  0.66564085  0.33577771  0.94587853    -1.14000
O2403       O  0.67376901  0.39199752  0.92435720    -0.73100
C2404       C  0.69710493  0.39391840  0.91240080     0.97600
C2405       C  0.69548859  0.30788705  0.98061135     0.94000
Al2406     Al  0.64396429  0.29188037  0.94590175     1.55600
O2407       O  0.71456402  0.39354506  0.96587572    -0.77800
C2408       C  0.60525396  0.30693449  0.91308673     0.98100
C2409       C  0.69527636  0.30634958  0.91484241     0.93000
O2410       O  0.71568071  0.32786745  0.92875155    -0.83100
C2411       C  0.67653331  0.14165923  0.12412706     0.79500
N2412       N  0.70073176  0.16885686  0.11268249    -0.78800
C2413       C  0.70103250  0.19790844  0.11292562     0.81900
N2414       N  0.67729754  0.19973966  0.12466551    -0.78800
C2415       C  0.65319101  0.17320748  0.13614726     0.82000
N2416       N  0.65277755  0.14410607  0.13584975    -0.80500
C2417       C  0.67517389  0.01644581  0.12411845     0.79500
N2418       N  0.64783645  0.99041462  0.13366818    -0.78800
C2419       C  0.64339468  0.45917900  0.13516033     0.81900
N2420       N  0.66677422  0.45413469  0.12543724    -0.78800
C2421       C  0.69456790  0.98036333  0.11501223     0.82000
N2422       N  0.69870397  0.01124588  0.11490218    -0.80500
C2423       C  0.98232840  0.32022930  0.12211824     0.79500
N2424       N  0.00782445  0.34590839  0.13322428    -0.78800
C2425       C  0.53860464  0.34932341  0.13603330     0.81900
N2426       N  0.54415069  0.32635884  0.12669793    -0.78800
C2427       C  0.51854167  0.29980410  0.11546871     0.82000
N2428       N  0.98771895  0.29695655  0.11322805    -0.80500
C2429       C  0.86008740  0.32675064  0.12102055     0.79500
N2430       N  0.83122402  0.30252172  0.11128951    -0.78800
C2431       C  0.80281308  0.30410433  0.11120091     0.81900
N2432       N  0.80314594  0.32973554  0.12154912    -0.78800
C2433       C  0.83140900  0.35382546  0.13191691     0.82000
N2434       N  0.85989541  0.35221886  0.13159186    -0.80500
C2435       C  0.80551338  0.38849240  0.18079649     0.85700
C2436       C  0.80325472  0.41413611  0.16484623    -0.54500
C2437       C  0.82772127  0.42890504  0.14872862     0.08700
C2438       C  0.85192198  0.41506821  0.14914977     0.19600
C2439       C  0.80377929  0.36362193  0.16364248    -0.55200
C2440       C  0.82844823  0.37674096  0.14751078     0.08800
C2441       C  0.84119435  0.40589815  0.19013883    -0.54800
C2442       C  0.86536400  0.42026608  0.17415511     0.09300
H2443       H  0.78427254  0.42085266  0.16654274     0.13800
H2444       H  0.87180953  0.42640554  0.13602373    -0.00400
H2445       H  0.78473582  0.33783906  0.16364300     0.14200
H2446       H  0.84708310  0.40820286  0.20853245     0.13900
C2447       C  0.61505195  0.20133202  0.18166561     0.85700
C2448       C  0.64181248  0.20296752  0.16561994    -0.54500
C2449       C  0.62978464  0.17759084  0.15032862     0.08700
C2450       C  0.59174032  0.15280029  0.15221631     0.19600
C2451       C  0.58769115  0.19943439  0.16549178    -0.55200
C2452       C  0.57488966  0.17423754  0.15023832     0.08800
C2453       C  0.60032223  0.16693020  0.19256609    -0.54800
C2454       C  0.58857574  0.14177535  0.17763193     0.09300
H2455       H  0.66838310  0.21987158  0.16741834     0.13800
H2456       H  0.58187995  0.13220263  0.13992180    -0.00400
H2457       H  0.57835997  0.21631203  0.16659026     0.14200
H2458       H  0.60052985  0.16274284  0.21110739     0.13900
C2459       C  0.57594722  0.41655316  0.18135891     0.85700
C2460       C  0.59917095  0.44302339  0.16387987    -0.54500
C2461       C  0.61427695  0.43300737  0.14871452     0.08700
C2462       C  0.60263257  0.39551468  0.15191314     0.19600
C2463       C  0.55056818  0.38848743  0.16671282    -0.55200
C2464       C  0.56332471  0.37679001  0.15116160     0.08800
C2465       C  0.59843679  0.40527944  0.19236144    -0.54800
C2466       C  0.61162838  0.39335586  0.17759984     0.09300
H2467       H  0.60647455  0.46869056  0.16501039     0.13800
H2468       H  0.61389556  0.38632506  0.13975741    -0.00400
H2469       H  0.52393899  0.37876985  0.16859627     0.14200
H2470       H  0.60381939  0.40665417  0.21078800     0.13900
O2471       O  0.72892959  0.38178545  0.31719687    -0.82600
C2472       C  0.64769078  0.27052673  0.26816629     0.96800
O2473       O  0.67797486  0.28617738  0.27429938    -0.71700
O2474       O  0.73351495  0.33958717  0.28266697    -0.75300
Al2475     Al  0.69584959  0.30981375  0.30162138     1.49000
C2476       C  0.73558308  0.36073311  0.26777324     0.92100
O2477       O  0.66497118  0.37559392  0.27094547    -0.81500
O2478       O  0.62169418  0.33980695  0.31029202    -0.75000
Al2479     Al  0.69469384  0.37423728  0.29449576     1.90100
O2480       O  0.62876367  0.32359029  0.26551811    -0.74100
O2481       O  0.62534460  0.28954054  0.32491666    -0.74000
O2482       O  0.62589705  0.27061441  0.28060896    -0.79600
O2483       O  0.66321334  0.27540944  0.32163620    -0.77800
O2484       O  0.67318028  0.33066193  0.29730647    -1.14000
O2485       O  0.71553095  0.33211411  0.32901022    -0.73100
C2486       C  0.72962533  0.36253415  0.33263641     0.97600
C2487       C  0.64461725  0.35264878  0.25782430     0.94000
Al2488     Al  0.62877932  0.30771873  0.29545792     1.55600
O2489       O  0.71890916  0.37450483  0.26980460    -0.77800
C2490       C  0.63953026  0.27453056  0.33257619     0.98100
C2491       C  0.64183932  0.36311457  0.32312098     0.93000
O2492       O  0.67251652  0.37819178  0.31911485    -0.83100
C2493       C  0.98985066  0.13896436  0.12243267     0.79500
N2494       N  0.99257923  0.16712264  0.11285319    -0.78800
C2495       C  0.52249335  0.19626568  0.11344592     0.81900
N2496       N  0.54927155  0.19722026  0.12422181    -0.78800
C2497       C  0.54702202  0.16983640  0.13449319     0.82000
N2498       N  0.51730799  0.14072046  0.13356932    -0.80500
C2499       C  0.86038166  0.01459698  0.12343711     0.79500
N2500       N  0.85951443  0.98737064  0.13330215    -0.78800
C2501       C  0.83044637  0.45723875  0.13458331     0.81900
N2502       N  0.80212938  0.45480557  0.12512294    -0.78800
C2503       C  0.80226839  0.48133646  0.11502450     0.82000
N2504       N  0.83163821  0.01153919  0.11391714    -0.80500
C2505       C  0.94515305  0.37727364  0.51242079     0.85700
C2506       C  0.97129195  0.37765930  0.49645332    -0.54500
C2507       C  0.95835158  0.35179831  0.48156058     0.08700
C2508       C  0.91979161  0.32784546  0.48384931     0.19600
C2509       C  0.91950067  0.37713433  0.49527403    -0.55200
C2510       C  0.90455475  0.35056118  0.48117994     0.08800
C2511       C  0.92820475  0.34324348  0.52383368    -0.54800
C2512       C  0.91557504  0.31756516  0.50945972     0.09300
H2513       H  0.99773825  0.39605136  0.49702573     0.13800
H2514       H  0.90892700  0.30669222  0.47199203    -0.00400
H2515       H  0.91346786  0.39646762  0.49417950     0.14200
H2516       H  0.92714853  0.33958603  0.54249116     0.13900
C2517       C  0.91451248  0.09142369  0.51695358     0.85700
C2518       C  0.93785054  0.11725285  0.49946933    -0.54500
C2519       C  0.95069766  0.10609011  0.48338462     0.08700
C2520       C  0.93773838  0.06827950  0.48629955     0.19600
C2521       C  0.88770465  0.06407552  0.50233757    -0.55200
C2522       C  0.89885513  0.05138333  0.48621860     0.08800
C2523       C  0.93594421  0.07832879  0.52716087    -0.54800
C2524       C  0.94675504  0.06473135  0.51179056     0.09300
H2525       H  0.94610014  0.14314870  0.50074519     0.13800
H2526       H  0.94755350  0.05831692  0.47360391    -0.00400
H2527       H  0.86140099  0.05527573  0.50503160     0.14200
H2528       H  0.94030597  0.07753728  0.54562112     0.13900
C2529       C  0.62817806  0.06228857  0.51320701     0.85700
C2530       C  0.63020037  0.08908595  0.49693268    -0.54500
C2531       C  0.65572359  0.10166115  0.48169978     0.08700
C2532       C  0.67732153  0.08474489  0.48380532     0.19600
C2533       C  0.62605722  0.03543965  0.49741799    -0.55200
C2534       C  0.65170284  0.04672421  0.48199430     0.08800
C2535       C  0.66305632  0.07661196  0.52416130    -0.54800
C2536       C  0.68876809  0.08870814  0.50938089     0.09300
H2537       H  0.61330291  0.09854482  0.49817407     0.13800
H2538       H  0.69826309  0.09445115  0.47150911    -0.00400
H2539       H  0.60881567  0.00929402  0.49993346     0.14200
H2540       H  0.66727121  0.07687899  0.54272413     0.13900
O2541       O  0.54299730  0.04713267  0.65916308    -0.82600
C2542       C  0.97825896  0.43939971  0.60136045     0.96800
O2543       O  0.00224539  0.44409861  0.61451589    -0.71700
O2544       O  0.55075594  0.99932153  0.60662119    -0.75300
Al2545     Al  0.52924153  0.48088674  0.63397205     1.49000
C2546       C  0.56469903  0.02926130  0.60107740     0.92100
O2547       O  0.50908282  0.04103512  0.59843452    -0.81500
O2548       O  0.95582642  0.99979747  0.65345970    -0.75000
Al2549     Al  0.52556805  0.04332996  0.62874104     1.90100
O2550       O  0.95713278  0.00249741  0.60500945    -0.74100
O2551       O  0.95659044  0.44639500  0.65402188    -0.74000
O2552       O  0.96040047  0.45112858  0.60610405    -0.79600
O2553       O  0.50811053  0.45840336  0.66108151    -0.77800
O2554       O  0.50453016  0.99944638  0.63128161    -1.14000
O2555       O  0.56178951  0.01342094  0.65419059    -0.73100
C2556       C  0.55908174  0.03359949  0.66664832     0.97600
C2557       C  0.97943681  0.02322005  0.59138721     0.94000
Al2558     Al  0.96065461  0.47663247  0.62944335     1.55600
O2559       O  0.56522272  0.04920429  0.61521380    -0.77800
C2560       C  0.97816041  0.44498879  0.66708314     0.98100
C2561       C  0.96782800  0.03020978  0.65425708     0.93000
O2562       O  0.99168060  0.04932164  0.64146254    -0.83100
C2563       C  0.69472198  0.00359334  0.46163897     0.79500
N2564       N  0.68929637  0.02678333  0.47068856    -0.78800
C2565       C  0.65788340  0.02277739  0.46970473     0.81900
N2566       N  0.63193844  0.99534816  0.45919370    -0.78800
C2567       C  0.63800798  0.47288924  0.44953669     0.82000
N2568       N  0.66922508  0.47777191  0.45121090    -0.80500
C2569       C  0.81648937  0.49735851  0.45955084     0.79500
N2570       N  0.82078418  0.47450047  0.44879669    -0.78800
C2571       C  0.85154422  0.47717001  0.44888563     0.81900
N2572       N  0.87821739  0.50318585  0.45992218    -0.78800
C2573       C  0.87316770  0.02454819  0.47122294     0.82000
N2574       N  0.84258397  0.02139393  0.47050701    -0.80500
C2575       C  0.50098779  0.18672854  0.45354645     0.79500
N2576       N  0.47650126  0.16023482  0.46472115    -0.78800
C2577       C  0.47590036  0.13126900  0.46713206     0.81900
N2578       N  0.50063495  0.12846364  0.45730668    -0.78800
C2579       C  0.52599637  0.15508135  0.44580962     0.82000
N2580       N  0.52605836  0.18412077  0.44411448    -0.80500
C2581       C  0.99714623  0.30842804  0.45567635     0.79500
N2582       N  0.97503567  0.31422339  0.46638901    -0.78800
C2583       C  0.98070717  0.34563027  0.46744589     0.81900
N2584       N  0.00875720  0.37146894  0.45751258    -0.78800
C2585       C  0.53055911  0.36553571  0.44640695     0.82000
N2586       N  0.52412323  0.33416115  0.44589217    -0.80500
C2587       C  0.81767055  0.31365251  0.45675280     0.79500
N2588       N  0.84597189  0.31590603  0.46644959    -0.78800
C2589       C  0.87525851  0.34540419  0.46684912     0.81900
N2590       N  0.87599760  0.37243607  0.45743424    -0.78800
C2591       C  0.84840929  0.37103692  0.44780141     0.82000
N2592       N  0.81905270  0.34150256  0.44762775    -0.80500
C2593       C  0.69056275  0.18749188  0.45779722     0.79500
N2594       N  0.66213788  0.18495548  0.44814946    -0.78800
C2595       C  0.63304336  0.15531010  0.44761261     0.81900
N2596       N  0.63261783  0.12829433  0.45690744    -0.78800
C2597       C  0.66041685  0.13008380  0.46672695     0.82000
N2598       N  0.68947677  0.15984920  0.46700809    -0.80500
C2599       C  0.60356518  0.40482758  0.40440926     0.85700
C2600       C  0.62728386  0.43004872  0.42165030    -0.54500
C2601       C  0.61395450  0.44436806  0.43474928     0.08700
C2602       C  0.57546830  0.42896977  0.43019289     0.19600
C2603       C  0.57636172  0.37931572  0.41997445    -0.55200
C2604       C  0.56038835  0.39075005  0.43315162     0.08800
C2605       C  0.58723348  0.42088575  0.39108587    -0.54800
C2606       C  0.57303655  0.43385332  0.40384887     0.09300
H2607       H  0.65272928  0.43544192  0.42372460     0.13800
H2608       H  0.56350611  0.43933598  0.44064640    -0.00400
H2609       H  0.57050440  0.35392792  0.42071087     0.14200
H2610       H  0.58713034  0.42224327  0.37230845     0.13900
C2611       C  0.56481493  0.12788585  0.40067655     0.85700
C2612       C  0.58987665  0.12599512  0.41772743    -0.54500
C2613       C  0.60347513  0.15054888  0.43365791     0.08700
C2614       C  0.58910693  0.17419646  0.43163322     0.19600
C2615       C  0.53818691  0.12694461  0.41600187    -0.55200
C2616       C  0.55017533  0.15090050  0.43212080     0.08800
C2617       C  0.58507778  0.16273716  0.39094283    -0.54800
C2618       C  0.59644967  0.18700091  0.40647942     0.09300
H2619       H  0.59911537  0.10918724  0.41617772     0.13800
H2620       H  0.59929204  0.19410453  0.44448874    -0.00400
H2621       H  0.51163643  0.10954960  0.41350901     0.14200
H2622       H  0.58928558  0.16824444  0.37258102     0.13900
C2623       C  0.88043070  0.44067410  0.40245942     0.85700
C2624       C  0.88236656  0.46646171  0.41925433    -0.54500
C2625       C  0.85657135  0.45418362  0.43457073     0.08700
C2626       C  0.83127957  0.41623099  0.43199180     0.19600
C2627       C  0.87959202  0.41415367  0.41869450    -0.55200
C2628       C  0.85338244  0.40001900  0.43351283     0.08800
C2629       C  0.84568576  0.42580967  0.39166296    -0.54800
C2630       C  0.82010047  0.41289262  0.40649181     0.09300
H2631       H  0.90141516  0.49236012  0.41893697     0.13800
H2632       H  0.81020225  0.40560257  0.44421843    -0.00400
H2633       H  0.89823491  0.40685685  0.41846675     0.14200
H2634       H  0.84139148  0.42502049  0.37307716     0.13900
O2635       O  0.56239809  0.05205837  0.26623170    -0.82600
C2636       C  0.94689456  0.47752944  0.31385519     0.96800
O2637       O  0.96471750  0.50701694  0.30744668    -0.71700
O2638       O  0.52159665  0.05796121  0.30006213    -0.75300
Al2639     Al  0.98988219  0.02334871  0.28046009     1.49000
C2640       C  0.53963455  0.05597413  0.31609259     0.92100
O2641       O  0.55005079  0.48360064  0.30872460    -0.81500
O2642       O  0.51131921  0.44459295  0.27113392    -0.75000
Al2643     Al  0.55147634  0.01578095  0.28736128     1.90100
O2644       O  0.49697278  0.45187984  0.31618683    -0.74100
O2645       O  0.96344030  0.45360231  0.25634603    -0.74000
O2646       O  0.94496640  0.45484191  0.30157651    -0.79600
O2647       O  0.95340057  0.49358543  0.26033173    -0.77800
O2648       O  0.50725448  0.49780524  0.28457334    -1.14000
O2649       O  0.51333196  0.04170547  0.25371308    -0.73100
C2650       C  0.54407566  0.05413011  0.25053365     0.97600
C2651       C  0.52715270  0.46418212  0.32234875     0.94000
Al2652     Al  0.98088614  0.45438072  0.28618835     1.55600
O2653       O  0.55311992  0.03902117  0.31344185    -0.77800
C2654       C  0.95194082  0.47098887  0.24824396     0.98100
C2655       C  0.53478868  0.46335628  0.25771960     0.93000
O2656       O  0.55243123  0.49366654  0.26147544    -0.83100
C2657       C  0.89387097  0.29619270  0.73579762     0.85700
C2658       C  0.91491895  0.29213298  0.75507102    -0.54500
C2659       C  0.93051240  0.31789866  0.76987658     0.08700
C2660       C  0.91982312  0.34416539  0.76567915     0.19600
C2661       C  0.86750521  0.29896122  0.74935472    -0.55200
C2662       C  0.88053167  0.32394878  0.76500163     0.08800
C2663       C  0.91575697  0.33039806  0.72542048    -0.54800
C2664       C  0.92948932  0.35531514  0.74047029     0.09300
H2665       H  0.91831720  0.27110486  0.75653920     0.13800
H2666       H  0.93103237  0.36463100  0.77810626    -0.00400
H2667       H  0.84077501  0.28210772  0.74748984     0.14200
H2668       H  0.92027059  0.33478343  0.70698269     0.13900
C2669       C  0.70773405  0.10949550  0.73566863     0.85700
C2670       C  0.71132715  0.13401258  0.75397997    -0.54500
C2671       C  0.68530080  0.12183927  0.76910112     0.08700
C2672       C  0.65906286  0.08451801  0.76573531     0.19600
C2673       C  0.70540631  0.08069244  0.75043254    -0.55200
C2674       C  0.67979542  0.06684948  0.76577215     0.08800
C2675       C  0.67291358  0.09634275  0.72531618    -0.54800
C2676       C  0.64766972  0.08335031  0.74054003     0.09300
H2677       H  0.73186130  0.15921494  0.75465430     0.13800
H2678       H  0.63825373  0.07388208  0.77818318    -0.00400
H2679       H  0.72298598  0.07209440  0.74943571     0.14200
H2680       H  0.66821839  0.09579361  0.70679292     0.13900
C2681       C  0.92645782  0.07699419  0.73060171     0.85700
C2682       C  0.95274592  0.09852862  0.74844003    -0.54500
C2683       C  0.94207527  0.11213587  0.76411039     0.08700
C2684       C  0.90404719  0.10009746  0.76166875     0.19600
C2685       C  0.89877448  0.05029438  0.74555722    -0.55200
C2686       C  0.88632946  0.06164681  0.76175404     0.08800
C2687       C  0.91188961  0.09707322  0.72073324    -0.54800
C2688       C  0.90041611  0.10940485  0.73649194     0.09300
H2689       H  0.97798178  0.10293469  0.74858902     0.13800
H2690       H  0.89462266  0.11019273  0.77455631    -0.00400
H2691       H  0.89005354  0.02429570  0.74379840     0.14200
H2692       H  0.91070135  0.10136875  0.70227886     0.13900
O2693       O  0.88784792  0.22568882  0.59798180    -0.82600
C2694       C  0.77473742  0.14072323  0.64685736     0.96800
O2695       O  0.78945503  0.17039730  0.64024064    -0.71700
O2696       O  0.84227700  0.22661710  0.63299182    -0.75300
Al2697     Al  0.81429258  0.18949612  0.61332621     1.49000
C2698       C  0.86427071  0.22975770  0.64777396     0.92100
O2699       O  0.88531881  0.16415767  0.64349009    -0.81500
O2700       O  0.85057046  0.12056498  0.60671895    -0.75000
Al2701     Al  0.88173537  0.19238752  0.62022264     1.90100
O2702       O  0.83327055  0.12818127  0.65094332    -0.74100
O2703       O  0.79752280  0.12004696  0.59077761    -0.74000
O2704       O  0.77701361  0.11991038  0.63512959    -0.79600
O2705       O  0.78163050  0.15649652  0.59284177    -0.77800
O2706       O  0.83744186  0.16927023  0.61791214    -1.14000
O2707       O  0.83723192  0.21078515  0.58612495    -0.73100
C2708       C  0.86823806  0.22629264  0.58275505     0.97600
C2709       C  0.86320355  0.14528121  0.65773108     0.94000
Al2710     Al  0.81630213  0.12552211  0.62066720     1.55600
O2711       O  0.88075496  0.21579552  0.64492216    -0.77800
C2712       C  0.78179464  0.13329814  0.58240090     0.98100
C2713       C  0.87242313  0.14021464  0.59263086     0.93000
O2714       O  0.88642872  0.17075439  0.59534906    -0.83100
C2715       C  0.83167033  0.48196811  0.79022472     0.79500
N2716       N  0.80811496  0.48667798  0.80006338    -0.78800
C2717       C  0.81035755  0.01712846  0.79927941     0.81900
N2718       N  0.83659010  0.04245178  0.78755343    -0.78800
C2719       C  0.85911114  0.03696939  0.77700597     0.82000
N2720       N  0.85622109  0.50728918  0.77823511    -0.80500
C2721       C  0.83059206  0.35659312  0.79169639     0.79500
N2722       N  0.80789831  0.32911058  0.80357841    -0.78800
C2723       C  0.80958216  0.30116084  0.80385664     0.81900
N2724       N  0.83427023  0.30071143  0.79220776    -0.78800
C2725       C  0.85729838  0.32768132  0.78022766     0.82000
N2726       N  0.85542268  0.35568472  0.78004085    -0.80500
C2727       C  0.64432157  0.48058196  0.79106851     0.79500
N2728       N  0.67273775  0.48369227  0.80146303    -0.78800
C2729       C  0.70208067  0.01398522  0.80131694     0.81900
N2730       N  0.70284061  0.04039207  0.79072080    -0.78800
C2731       C  0.67523513  0.03821728  0.78045269     0.82000
N2732       N  0.64617070  0.50793639  0.78049710    -0.80500
C2733       C  0.51715013  0.35117769  0.79470104     0.79500
N2734       N  0.51461758  0.32246820  0.80322009    -0.78800
C2735       C  0.98491139  0.29345278  0.80238676     0.81900
N2736       N  0.95770988  0.29321609  0.79288826    -0.78800
C2737       C  0.95931740  0.32111205  0.78429014     0.82000
N2738       N  0.48909369  0.34988976  0.78521570    -0.80500
C2739       C  0.65105866  0.17134726  0.79285738     0.79500
N2740       N  0.67891960  0.19562301  0.80348791    -0.78800
C2741       C  0.70776642  0.19492387  0.80437990     0.81900
N2742       N  0.70882574  0.16982178  0.79430515    -0.78800
C2743       C  0.68138672  0.14529237  0.78352715     0.82000
N2744       N  0.65235926  0.14599611  0.78302283    -0.80500
C2745       C  0.52357138  0.16793534  0.79225810     0.79500
N2746       N  0.51824547  0.19138145  0.80107993    -0.78800
C2747       C  0.48735473  0.18835391  0.79902693     0.81900
N2748       N  0.96185930  0.16175292  0.78820474    -0.78800
C2749       C  0.96734640  0.13881567  0.77900976     0.82000
N2750       N  0.49818189  0.14243736  0.78092456    -0.80500
C2751       C  0.77695816  0.23330280  0.85061945     0.85700
C2752       C  0.75084335  0.20688695  0.83449716    -0.54500
C2753       C  0.73636639  0.21843093  0.81889275     0.08700
C2754       C  0.74931117  0.25591005  0.82094391     0.19600
C2755       C  0.80190977  0.26071633  0.83461292    -0.55200
C2756       C  0.78792746  0.27288667  0.81920782     0.08800
C2757       C  0.75711062  0.24719761  0.86138965    -0.54800
C2758       C  0.74345395  0.25960040  0.84632665     0.09300
H2759       H  0.74161637  0.18075599  0.83643360     0.13800
H2760       H  0.73765670  0.26564694  0.80851687    -0.00400
H2761       H  0.82871913  0.27054995  0.83596252     0.14200
H2762       H  0.75421674  0.24764376  0.87988887     0.13900
C2763       C  0.77460940  0.04744514  0.84534863     0.85700
C2764       C  0.80038209  0.04912345  0.82817368    -0.54500
C2765       C  0.78745989  0.02371040  0.81279855     0.08700
C2766       C  0.74947941  0.49815268  0.81560123     0.19600
C2767       C  0.74621928  0.04546615  0.83014418    -0.55200
C2768       C  0.73211970  0.01989140  0.81518004     0.08800
C2769       C  0.76052773  0.01302622  0.85618148    -0.54800
C2770       C  0.74761866  0.48713201  0.84090070     0.09300
H2771       H  0.82707567  0.06569995  0.82954530     0.13800
H2772       H  0.73851855  0.47742543  0.80337903    -0.00400
H2773       H  0.73675169  0.06211089  0.83203683     0.14200
H2774       H  0.76084942  0.00862245  0.87468890     0.13900
C2775       C  0.95259557  0.21909005  0.84456059     0.85700
C2776       C  0.95292206  0.24669588  0.82925284    -0.54500
C2777       C  0.47947942  0.26266323  0.81482416     0.08700
C2778       C  0.50282958  0.24788645  0.81580698     0.19600
C2779       C  0.95256480  0.19568450  0.82686531    -0.55200
C2780       C  0.47941843  0.20992797  0.81230363     0.08800
C2781       C  0.48706473  0.23509855  0.85576401    -0.54800
C2782       C  0.51305632  0.25011447  0.84123282     0.09300
H2783       H  0.93407511  0.25367169  0.82942006     0.13800
H2784       H  0.52439035  0.26020226  0.80400269    -0.00400
H2785       H  0.93417755  0.16958864  0.82655371     0.14200
H2786       H  0.49090523  0.23627931  0.87439741     0.13900
O2787       O  0.89836833  0.21079275  0.98785438    -0.82600
C2788       C  0.80950529  0.10690400  0.93525578     0.96800
O2789       O  0.83986740  0.12032098  0.94098186    -0.71700
O2790       O  0.89580352  0.17254260  0.94888492    -0.75300
Al2791     Al  0.86073133  0.14076132  0.96885788     1.49000
C2792       C  0.89446789  0.19355771  0.93535258     0.92100
O2793       O  0.82870112  0.21133397  0.95188656    -0.81500
O2794       O  0.79012523  0.17052081  0.98834849    -0.75000
Al2795     Al  0.86093467  0.20591369  0.96976143     1.90100
O2796       O  0.79283691  0.16129476  0.94121829    -0.74100
O2797       O  0.79219277  0.11760901  0.99616767    -0.74000
O2798       O  0.78875534  0.10563838  0.94943383    -0.79600
O2799       O  0.82990949  0.10458763  0.98873589    -0.77800
O2800       O  0.83863204  0.16222570  0.96931090    -1.14000
O2801       O  0.88387405  0.15996848  0.99647254    -0.73100
C2802       C  0.89941139  0.18998746  0.00153046     0.97600
C2803       C  0.80828452  0.19180750  0.93713698     0.94000
Al2804     Al  0.79421272  0.14033154  0.96885711     1.55600
O2805       O  0.88055860  0.20874181  0.94172939    -0.77800
C2806       C  0.80741463  0.10267324  0.00168282     0.98100
C2807       C  0.81164182  0.19171634  0.00193862     0.93000
O2808       O  0.84227619  0.20579735  0.99763777    -0.83100
C2809       C  0.91565322  0.22432937  0.87302466    -0.21100
C2810       C  0.92782032  0.20474713  0.86462348    -0.07600
C2811       C  0.92693981  0.17989793  0.87988235     0.13200
C2812       C  0.91630129  0.17725656  0.90270545    -0.21100
C2813       C  0.90690008  0.19878684  0.91129192    -0.07600
C2814       C  0.90644389  0.22262128  0.89596137     0.13200
C2815       C  0.89797418  0.24789418  0.90346636    -0.24500
H2816       H  0.91590570  0.24358814  0.86251116     0.14500
H2817       H  0.91574393  0.15829979  0.91406858     0.14500
C2818       C  0.93878099  0.15692923  0.87301750    -0.24400
H2819       H  0.90118133  0.26588971  0.88949971     0.04800
H2820       H  0.91456163  0.26215198  0.91805755     0.08000
H2821       H  0.87151144  0.23547680  0.90852114     0.08000
H2822       H  0.46532679  0.17095597  0.86729030     0.08000
H2823       H  0.92240093  0.14058996  0.85917067     0.08000
H2824       H  0.93772887  0.14057275  0.88757685     0.04700
C2825       C  0.75846808  0.06331930  0.88142406    -0.21100
C2826       C  0.78400394  0.07154659  0.86534923    -0.07600
C2827       C  0.81664900  0.09696902  0.87124201     0.13200
C2828       C  0.82408657  0.10688415  0.89430509    -0.21100
C2829       C  0.79920731  0.09468559  0.91128461    -0.07600
C2830       C  0.76550740  0.07419012  0.90421289     0.13200
C2831       C  0.73674675  0.06243708  0.92050725    -0.24500
H2832       H  0.73282037  0.04557290  0.87665215     0.14500
H2833       H  0.84952108  0.12538650  0.89882008     0.14500
C2834       C  0.84298181  0.11666715  0.85366063    -0.24400
H2835       H  0.71233795  0.04550365  0.91205075     0.04800
H2836       H  0.73541381  0.08380380  0.92662649     0.08000
H2837       H  0.73999806  0.04887936  0.93538502     0.08000
H2838       H  0.83194199  0.11402751  0.83610577     0.08000
H2839       H  0.86222160  0.10937323  0.85426202     0.08000
H2840       H  0.85530627  0.14335714  0.85744633     0.04700
C2841       C  0.80936389  0.24703186  0.88770848    -0.21100
C2842       C  0.79393305  0.22398243  0.86994200    -0.07600
C2843       C  0.79057168  0.19260462  0.87328405     0.13200
C2844       C  0.79420701  0.18261174  0.89563149    -0.21100
C2845       C  0.80400043  0.20412526  0.91433249    -0.07600
C2846       C  0.81305443  0.23731505  0.91005618     0.13200
C2847       C  0.82516540  0.26242189  0.92887337    -0.24500
H2848       H  0.81510224  0.27219126  0.88465204     0.14500
H2849       H  0.79070546  0.15815980  0.89823385     0.14500
C2850       C  0.78742999  0.17085297  0.85378217    -0.24400
H2851       H  0.82849452  0.28635759  0.92247331     0.04800
H2852       H  0.84979453  0.26734561  0.93574406     0.08000
H2853       H  0.80664932  0.25326432  0.94293408     0.08000
H2854       H  0.79177910  0.18371295  0.83680057     0.08000
H2855       H  0.76253583  0.14791053  0.85405220     0.08000
H2856       H  0.80696999  0.16397182  0.85581374     0.04700
C2857       C  0.58614755  0.19903774  0.78925658    -0.21100
C2858       C  0.55652215  0.16943264  0.79441983    -0.07600
C2859       C  0.55855111  0.14083941  0.79974364     0.13200
C2860       C  0.58953887  0.14232195  0.79878772    -0.21100
C2861       C  0.61903120  0.17167219  0.79313913    -0.07600
C2862       C  0.61729065  0.20054911  0.78851370     0.13200
C2863       C  0.64782470  0.23271648  0.78167584    -0.24500
H2864       H  0.58476088  0.22087719  0.78505473     0.14500
H2865       H  0.59082431  0.12036997  0.80278994     0.14500
C2866       C  0.52837378  0.10875798  0.80728343    -0.24400
H2867       H  0.64151180  0.25198995  0.77710828     0.04800
H2868       H  0.65940442  0.22910322  0.76642982     0.08000
H2869       H  0.66625478  0.24211057  0.79613703     0.08000
H2870       H  0.51007007  0.09792099  0.79284970     0.08000
H2871       H  0.51647735  0.11305215  0.82203775     0.08000
H2872       H  0.53522900  0.09020023  0.81293607     0.04700
C2873       C  0.55331812  0.40920802  0.77942017    -0.21100
C2874       C  0.55032911  0.38382824  0.79444448    -0.07600
C2875       C  0.57883472  0.39083345  0.80842546     0.13200
C2876       C  0.60856190  0.42216825  0.80685210    -0.21100
C2877       C  0.61153001  0.44749427  0.79164741    -0.07600
C2878       C  0.58306481  0.44019750  0.77750888     0.13200
C2879       C  0.58357711  0.46418419  0.75957290    -0.24500
H2880       H  0.53204294  0.40478746  0.76872601     0.14500
H2881       H  0.62969487  0.42692779  0.81790692     0.14500
C2882       C  0.57810155  0.36614376  0.82580957    -0.24400
H2883       H  0.55998057  0.45363176  0.74923128     0.04800
H2884       H  0.60420851  0.47076121  0.74748172     0.08000
H2885       H  0.58672929  0.48646536  0.76791803     0.08000
H2886       H  0.57417563  0.34384923  0.81703088     0.08000
H2887       H  0.55780571  0.35961243  0.83816839     0.08000
H2888       H  0.60190828  0.37608207  0.83582388     0.04700
C2889       C  0.80120976  0.41992426  0.79487560    -0.21100
C2890       C  0.83154367  0.44990874  0.79219020    -0.07600
C2891       C  0.86146833  0.44861758  0.79068839     0.13200
C2892       C  0.85982421  0.41798968  0.79050616    -0.21100
C2893       C  0.82952620  0.38799464  0.79238604    -0.07600
C2894       C  0.79973698  0.38913594  0.79512764     0.13200
C2895       C  0.76604669  0.35819837  0.79770144    -0.24500
H2896       H  0.77831997  0.42051025  0.79636094     0.14500
H2897       H  0.88280305  0.41754746  0.78909684     0.14500
C2898       C  0.89581614  0.47921584  0.78999029    -0.24400
H2899       H  0.74551388  0.36371273  0.79823240     0.04800
H2900       H  0.76536303  0.34507862  0.81407662     0.08000
H2901       H  0.76097617  0.34186750  0.78288983     0.08000
H2902       H  0.89897686  0.49552059  0.80442508     0.08000
H2903       H  0.89957151  0.49249943  0.77323606     0.08000
H2904       H  0.91602774  0.47324344  0.79178158     0.04700
C2905       C  0.90972323  0.15818498  0.71568713    -0.21100
C2906       C  0.88646765  0.12947233  0.72754881    -0.07600
C2907       C  0.85334391  0.11209824  0.71916441     0.13200
C2908       C  0.84620349  0.11909921  0.69679366    -0.21100
C2909       C  0.87165067  0.14288473  0.68250219    -0.07600
C2910       C  0.90356436  0.16404917  0.69268567     0.13200
C2911       C  0.93212221  0.19130101  0.67937181    -0.24500
H2912       H  0.93502677  0.17200283  0.72262588     0.14500
H2913       H  0.82112553  0.10415718  0.69004167     0.14500
C2914       C  0.82652519  0.08356953  0.73279550    -0.24400
H2915       H  0.95470659  0.20558652  0.69042876     0.04800
H2916       H  0.92482123  0.20871405  0.67213076     0.08000
H2917       H  0.93916295  0.18077259  0.66526068     0.08000
H2918       H  0.82438516  0.09219358  0.74989013     0.08000
H2919       H  0.83279718  0.06389296  0.73531305     0.08000
H2920       H  0.80176143  0.07267027  0.72389573     0.04700
C2921       C  0.73719143  0.09816921  0.70446572    -0.21100
C2922       C  0.73180863  0.12165237  0.71516292    -0.07600
C2923       C  0.73816935  0.15009220  0.70167854     0.13200
C2924       C  0.75080717  0.15449712  0.67936044    -0.21100
C2925       C  0.75688379  0.13147230  0.66925485    -0.07600
C2926       C  0.74877954  0.10222718  0.68183365     0.13200
C2927       C  0.75003920  0.07398467  0.67132156    -0.24500
H2928       H  0.72962514  0.07474473  0.71288097     0.14500
H2929       H  0.75508742  0.17597384  0.66935343     0.14500
C2930       C  0.73040685  0.17562302  0.70969622    -0.24400
H2931       H  0.74174818  0.05267217  0.68349486     0.04800
H2932       H  0.77574359  0.08162439  0.66624332     0.08000
H2933       H  0.73319599  0.06524307  0.65594381     0.08000
H2934       H  0.74788537  0.19005680  0.72379761     0.08000
H2935       H  0.70402437  0.16389537  0.71515487     0.08000
H2936       H  0.73379904  0.19378141  0.69580133     0.04700
C2937       C  0.90052802  0.25630218  0.68143826    -0.21100
C2938       C  0.87080973  0.24822613  0.66952601    -0.07600
C2939       C  0.84744444  0.25408639  0.68018891     0.13200
C2940       C  0.85358850  0.26566273  0.70295481    -0.21100
C2941       C  0.88299257  0.27252581  0.71548652    -0.07600
C2942       C  0.90706331  0.26793904  0.70390843     0.13200
C2943       C  0.94085030  0.27639203  0.71406203    -0.24500
H2944       H  0.91937566  0.25369647  0.67286071     0.14500
H2945       H  0.83614195  0.27150887  0.71020999     0.14500
C2946       C  0.81681398  0.24973822  0.66747231    -0.24400
H2947       H  0.95711342  0.27461733  0.70123796     0.04800
H2948       H  0.93773339  0.25853104  0.72802297     0.08000
H2949       H  0.95477171  0.30206257  0.72020984     0.08000
H2950       H  0.80113733  0.22397970  0.66199483     0.08000
H2951       H  0.82441220  0.26636259  0.65204521     0.08000
H2952       H  0.80132094  0.25560962  0.67833374     0.04700
C2953       C  0.91428969  0.43652109  0.34423917    -0.21100
C2954       C  0.93038239  0.46943985  0.33668533    -0.07600
C2955       C  0.93344634  0.49365553  0.35212380     0.13200
C2956       C  0.92076751  0.48417093  0.37447427    -0.21100
C2957       C  0.90439496  0.45105973  0.38215713    -0.07600
C2958       C  0.90200549  0.42693391  0.36659178     0.13200
C2959       C  0.88555477  0.39049356  0.37256235    -0.24500
H2960       H  0.91201199  0.41787118  0.33265985     0.14500
H2961       H  0.92211286  0.50295770  0.38529530     0.14500
C2962       C  0.94973592  0.02922564  0.34526269    -0.24400
H2963       H  0.88408779  0.37576617  0.35754045     0.04800
H2964       H  0.85954066  0.38034285  0.37833886     0.08000
H2965       H  0.90056609  0.38625655  0.38589410     0.08000
H2966       H  0.93579047  0.53224204  0.32983716     0.08000
H2967       H  0.97640383  0.03901672  0.34179008     0.08000
H2968       H  0.94863252  0.04418032  0.35924258     0.04700
C2969       C  0.55592456  0.07784504  0.37981217    -0.21100
C2970       C  0.55049714  0.10426856  0.38054913    -0.07600
C2971       C  0.53587643  0.11098819  0.36064318     0.13200
C2972       C  0.53440436  0.09622436  0.33973479    -0.21100
C2973       C  0.54371762  0.07238379  0.33845333    -0.07600
C2974       C  0.55236673  0.06168991  0.35928435     0.13200
C2975       C  0.55680880  0.03250819  0.36055388    -0.24500
H2976       H  0.56305615  0.06953159  0.39531319     0.14500
H2977       H  0.52513537  0.10295268  0.32441199     0.14500
C2978       C  0.52242048  0.13419766  0.36024756    -0.24400
H2979       H  0.56128957  0.02638630  0.37844378     0.04800
H2980       H  0.57881171  0.03786320  0.35029539     0.08000
H2981       H  0.53351440  0.01092802  0.35405021     0.08000
H2982       H  0.53700245  0.15500509  0.34800824     0.08000
H2983       H  0.52307164  0.14448947  0.37719728     0.08000
H2984       H  0.49587518  0.12074586  0.35433179     0.04700
C2985       C  0.52493126  0.43228108  0.38456553    -0.21100
C2986       C  0.55882598  0.45118723  0.39075898    -0.07600
C2987       C  0.58081044  0.47640547  0.37549931     0.13200
C2988       C  0.57018043  0.47771188  0.35298347    -0.21100
C2989       C  0.53658028  0.45789128  0.34600649    -0.07600
C2990       C  0.51332364  0.43570947  0.36253858     0.13200
C2991       C  0.97646877  0.41413080  0.35689391    -0.24500
H2992       H  0.50814283  0.41257113  0.39614368     0.14500
H2993       H  0.58845583  0.49541789  0.34103123     0.14500
C2994       C  0.61696502  0.49962862  0.38183716    -0.24400
H2995       H  0.96236712  0.39757292  0.37157193     0.04800
H2996       H  0.97271367  0.39857470  0.34185051     0.08000
H2997       H  0.96607039  0.43026322  0.35312505     0.08000
H2998       H  0.63333121  0.49566624  0.37045366     0.08000
H2999       H  0.62269183  0.49615565  0.40004681     0.08000
H3000       H  0.62285106  0.02497428  0.37954778     0.04700
C3001       C  0.75613708  0.27951435  0.46452033    -0.21100
C3002       C  0.78528584  0.28116278  0.45660196    -0.07600
C3003       C  0.78287451  0.25174394  0.44890432     0.13200
C3004       C  0.75191078  0.22172192  0.44977668    -0.21100
C3005       C  0.72281102  0.22005245  0.45778317    -0.07600
C3006       C  0.72519555  0.24944514  0.46549109     0.13200
C3007       C  0.69571047  0.24896542  0.47606723    -0.24500
H3008       H  0.75778555  0.30181872  0.47057257     0.14500
H3009       H  0.75025770  0.19941216  0.44372691     0.14500
C3010       C  0.81244044  0.25207240  0.43861324    -0.24400
H3011       H  0.70233911  0.27366068  0.48225102     0.04800
H3012       H  0.68685762  0.23148737  0.49103392     0.08000
H3013       H  0.67499238  0.24126930  0.46332095     0.08000
H3014       H  0.83275928  0.25930175  0.45163577     0.08000
H3015       H  0.82181894  0.26979954  0.42379883     0.08000
H3016       H  0.80572434  0.22742153  0.43227961     0.04700
C3017       C  0.98265408  0.22253471  0.47103419    -0.21100
C3018       C  0.49971288  0.21791856  0.45304506    -0.07600
C3019       C  0.51334795  0.24210438  0.43523017     0.13200
C3020       C  0.50990285  0.27003747  0.43596990    -0.21100
C3021       C  0.99399785  0.27527369  0.45446303    -0.07600
C3022       C  0.97958938  0.25070617  0.47195729     0.13200
C3023       C  0.96211638  0.25437246  0.49213273    -0.24500
H3024       H  0.97189146  0.20417136  0.48477089     0.14500
H3025       H  0.52072652  0.28846940  0.42226844     0.14500
C3026       C  0.53130182  0.23878779  0.41523815    -0.24400
H3027       H  0.95315118  0.23316814  0.50448186     0.04800
H3028       H  0.93999308  0.25571498  0.48596479     0.08000
H3029       H  0.97961434  0.27705571  0.50161731     0.08000
H3030       H  0.51464391  0.21531794  0.40629296     0.08000
H3031       H  0.55434896  0.23932939  0.42153573     0.08000
H3032       H  0.53897507  0.25928089  0.40239896     0.04700
C3033       C  0.73586775  0.49522319  0.44082741    -0.21100
C3034       C  0.72781195  0.00562019  0.46105723    -0.07600
C3035       C  0.74948809  0.01355122  0.48035117     0.13200
C3036       C  0.77722609  0.00916486  0.47943365    -0.21100
C3037       C  0.78419127  0.49703870  0.45976115    -0.07600
C3038       C  0.76347459  0.49063947  0.44002023     0.13200
C3039       C  0.77063562  0.47968557  0.41792420    -0.24500
H3040       H  0.71989614  0.48991590  0.42566529     0.14500
H3041       H  0.79381323  0.01548868  0.49434565     0.14500
C3042       C  0.74314906  0.02589984  0.50206446    -0.24400
H3043       H  0.75258075  0.47690441  0.40394601     0.04800
H3044       H  0.76866305  0.45539581  0.42084753     0.08000
H3045       H  0.79614828  0.49808431  0.41199756     0.08000
H3046       H  0.71811476  0.00761370  0.50881041     0.08000
H3047       H  0.74434843  0.04966670  0.49821601     0.08000
H3048       H  0.76209468  0.03018149  0.51574455     0.04700
C3049       C  0.60494577  0.03408375  0.72248935    -0.21100
C3050       C  0.61357683  0.06483111  0.73098277    -0.07600
C3051       C  0.59911983  0.08226860  0.72085669     0.13200
C3052       C  0.57979447  0.07050663  0.70056949    -0.21100
C3053       C  0.57539064  0.04206393  0.68991459    -0.07600
C3054       C  0.58667035  0.02262834  0.70189394     0.13200
C3055       C  0.58113540  0.99049783  0.69304958    -0.24500
H3056       H  0.61717608  0.02154514  0.72997031     0.14500
H3057       H  0.57009185  0.08488813  0.69224527     0.14500
C3058       C  0.60647543  0.11462417  0.73052268    -0.24400
H3059       H  0.59062403  0.97849263  0.70535227     0.04800
H3060       H  0.59441057  0.99458597  0.67661270     0.08000
H3061       H  0.55407144  0.97324494  0.69069504     0.08000
H3062       H  0.63373616  0.13274729  0.73001345     0.08000
H3063       H  0.59811705  0.11075182  0.74866465     0.08000
H3064       H  0.59327975  0.12526416  0.72059920     0.04700
C3065       C  0.91514298  0.03583260  0.70000970    -0.21100
C3066       C  0.93855201  0.06548422  0.71074187    -0.07600
C3067       C  0.96881746  0.08684099  0.69880042     0.13200
C3068       C  0.97746397  0.07472785  0.68015805    -0.21100
C3069       C  0.95543636  0.04347257  0.67144157    -0.07600
C3070       C  0.92285853  0.02496500  0.68029246     0.13200
C3071       C  0.89445671  0.49481572  0.66747098    -0.24500
H3072       H  0.88984976  0.02163624  0.70621109     0.14500
H3073       H  0.00177067  0.08986678  0.67240181     0.14500
C3074       C  0.99161374  0.12291840  0.70411172    -0.24400
H3075       H  0.86961960  0.48582283  0.67521343     0.04800
H3076       H  0.89945901  0.47429726  0.66876777     0.08000
H3077       H  0.89273848  0.50087095  0.64902476     0.08000
H3078       H  0.00889799  0.12593942  0.71861953     0.08000
H3079       H  0.97705312  0.13493477  0.70772579     0.08000
H3080       H  0.00755770  0.13662895  0.68915139     0.04700
C3081       C  0.98782894  0.41352073  0.69813240    -0.21100
C3082       C  0.96896560  0.42735013  0.68975853    -0.07600
C3083       C  0.94339112  0.42521756  0.70374994     0.13200
C3084       C  0.93490645  0.40604812  0.72422571    -0.21100
C3085       C  0.95104035  0.38871771  0.73078829    -0.07600
C3086       C  0.97944345  0.39460420  0.71847104     0.13200
C3087       C  0.99883551  0.37778485  0.72479114    -0.24500
H3088       H  0.00813848  0.41569314  0.68802354     0.14500
H3089       H  0.91300601  0.40137963  0.73359295     0.14500
C3090       C  0.92444862  0.44232611  0.69710525    -0.24400
H3091       H  0.02569432  0.39658934  0.72712839     0.04800
H3092       H  0.99635396  0.36122252  0.71072964     0.08000
H3093       H  0.98992745  0.36293626  0.74091082     0.08000
H3094       H  0.90987554  0.43177993  0.68099363     0.08000
H3095       H  0.94225930  0.46914780  0.69469984     0.08000
H3096       H  0.90652082  0.43920397  0.71058308     0.04700
C3097       C  0.72759521  0.07921974  0.53302991    -0.21100
C3098       C  0.72279506  0.10188819  0.51963465    -0.07600
C3099       C  0.74215472  0.13563955  0.52496185     0.13200
C3100       C  0.76175209  0.14522822  0.54524134    -0.21100
C3101       C  0.76362376  0.12199252  0.55999540    -0.07600
C3102       C  0.74781512  0.08874037  0.55305250     0.13200
C3103       C  0.74970340  0.06255422  0.56749358    -0.24500
H3104       H  0.71205910  0.05320099  0.52940462     0.14500
H3105       H  0.77509812  0.17103325  0.54979702     0.14500
C3106       C  0.74098264  0.16177196  0.51023830    -0.24400
H3107       H  0.73423971  0.03769852  0.56000442     0.04800
H3108       H  0.74049047  0.06163709  0.58509580     0.08000
H3109       H  0.77591392  0.06796525  0.56849250     0.08000
H3110       H  0.76679390  0.18124542  0.50563676     0.08000
H3111       H  0.72714278  0.15142607  0.49397783     0.08000
H3112       H  0.72894232  0.17297994  0.51971031     0.04700
C3113       C  0.61302310  0.07975171  0.54882935    -0.21100
C3114       C  0.60337602  0.05462083  0.53255503    -0.07600
C3115       C  0.57464411  0.02374499  0.53721302     0.13200
C3116       C  0.56267218  0.01644659  0.55979836    -0.21100
C3117       C  0.57740080  0.03979403  0.57741518    -0.07600
C3118       C  0.60129814  0.07261740  0.57138881     0.13200
C3119       C  0.61586767  0.09997348  0.58862378    -0.24500
H3120       H  0.63281909  0.10460388  0.54457726     0.14500
H3121       H  0.54081242  0.99266640  0.56344421     0.14500
C3122       C  0.55392993  0.99970712  0.51876188    -0.24400
H3123       H  0.63554810  0.12365960  0.58093870     0.04800
H3124       H  0.62740487  0.09351686  0.60334617     0.08000
H3125       H  0.59597429  0.10409219  0.59488658     0.08000
H3126       H  0.55579594  0.97718020  0.52058842     0.08000
H3127       H  0.56115684  0.01077354  0.50123415     0.08000
H3128       H  0.52755640  0.49215176  0.52083351     0.04700
C3129       C  0.87627801  0.09558730  0.57400927    -0.21100
C3130       C  0.88121576  0.12745216  0.57264290    -0.07600
C3131       C  0.89163812  0.14531161  0.55146011     0.13200
C3132       C  0.90085313  0.13263211  0.53346179    -0.21100
C3133       C  0.89952531  0.10218172  0.53563102    -0.07600
C3134       C  0.88385808  0.08212635  0.55556804     0.13200
C3135       C  0.87416467  0.04634765  0.55837478    -0.24500
H3136       H  0.86602088  0.08076685  0.58956317     0.14500
H3137       H  0.90829157  0.14662375  0.51748167     0.14500
C3138       C  0.89201766  0.17720622  0.54715024    -0.24400
H3139       H  0.84710319  0.03125093  0.56227685     0.04800
H3140       H  0.88863441  0.04358826  0.57294857     0.08000
H3141       H  0.87798668  0.03570841  0.54291451     0.08000
H3142       H  0.91149598  0.19651042  0.55812619     0.08000
H3143       H  0.86712870  0.17378083  0.55091116     0.08000
H3144       H  0.89795499  0.18616231  0.52900548     0.04700
C3145       C  0.93365110  0.01532612  0.53365601    -0.21100
C3146       C  0.95847939  0.04314563  0.52176393    -0.07600
C3147       C  0.99152927  0.05835777  0.53032155     0.13200
C3148       C  0.99778749  0.04995469  0.55253559    -0.21100
C3149       C  0.97149370  0.02688753  0.56667159    -0.07600
C3150       C  0.93912469  0.00803947  0.55648750     0.13200
C3151       C  0.90954727  0.98189638  0.56970095    -0.24500
H3152       H  0.90826728  0.00333506  0.52678011     0.14500
H3153       H  0.02322968  0.06318970  0.55924235     0.14500
C3154       C  0.01996109  0.08581807  0.51710959    -0.24400
H3155       H  0.88642354  0.97001570  0.55885294     0.04800
H3156       H  0.90479470  0.49132113  0.58284972     0.08000
H3157       H  0.41455431  0.96216958  0.57566018     0.08000
H3158       H  0.03949766  0.07935332  0.51446447     0.08000
H3159       H  0.01159399  0.09013449  0.49991484     0.08000
H3160       H  0.03101071  0.10896405  0.52696470     0.04700
C3161       C  0.92564816  0.28109106  0.53438757    -0.21100
C3162       C  0.90268056  0.28449075  0.52005474    -0.07600
C3163       C  0.86831024  0.26452429  0.52435434     0.13200
C3164       C  0.85791709  0.24409740  0.54411840    -0.21100
C3165       C  0.88122623  0.24493648  0.56062616    -0.07600
C3166       C  0.91581648  0.26340555  0.55535296     0.13200
C3167       C  0.94304358  0.26768056  0.57227143    -0.24500
H3168       H  0.95211707  0.29697200  0.53104018     0.14500
H3169       H  0.83137573  0.22931506  0.54744893     0.14500
C3170       C  0.84280251  0.26692850  0.50920886    -0.24400
H3171       H  0.96840632  0.28375851  0.56512627     0.04800
H3172       H  0.94085226  0.24371888  0.57691129     0.08000
H3173       H  0.94154553  0.27949026  0.58807942     0.08000
H3174       H  0.84532491  0.26123676  0.49127126     0.08000
H3175       H  0.84682073  0.29220597  0.50980908     0.08000
H3176       H  0.81684335  0.24932109  0.51477657     0.04700
C3177       C  0.98788606  0.41033792  0.54303435    -0.21100
C3178       C  0.95661379  0.40132860  0.53239525    -0.07600
C3179       C  0.93231599  0.40288105  0.54603604     0.13200
C3180       C  0.94015539  0.41327610  0.56871675    -0.21100
C3181       C  0.97120584  0.42249339  0.57901496    -0.07600
C3182       C  0.99524669  0.42020718  0.56614723     0.13200
C3183       C  0.52792433  0.42627353  0.57670230    -0.24500
H3184       H  0.00594274  0.40705739  0.53401748     0.14500
H3185       H  0.92125348  0.41395427  0.57877892     0.14500
C3186       C  0.89690398  0.39190737  0.53802364    -0.24400
H3187       H  0.54322909  0.42249754  0.56418204     0.04800
H3188       H  0.52283796  0.40886639  0.59145549     0.08000
H3189       H  0.54313487  0.45180329  0.58282981     0.08000
H3190       H  0.88384690  0.36606691  0.53213958     0.08000
H3191       H  0.89709609  0.40901679  0.52442614     0.08000
H3192       H  0.88140980  0.39247468  0.55201280     0.04700
C3193       C  0.92256030  0.04689931  0.11838559    -0.21100
C3194       C  0.89294397  0.04704770  0.12248998    -0.07600
C3195       C  0.89539158  0.07799053  0.12560887     0.13200
C3196       C  0.92711781  0.10727157  0.12545795    -0.21100
C3197       C  0.95678611  0.10699258  0.12176501    -0.07600
C3198       C  0.95403121  0.07629161  0.11724642     0.13200
C3199       C  0.98365079  0.07444345  0.10944791    -0.24500
H3200       H  0.92093677  0.02357551  0.11526063     0.14500
H3201       H  0.92878562  0.13064128  0.12846776     0.14500
C3202       C  0.86489209  0.08045604  0.12980853    -0.24400
H3203       H  0.97680612  0.04877199  0.10568187     0.04800
H3204       H  0.00349999  0.08365733  0.12283334     0.08000
H3205       H  0.99375460  0.08962309  0.09348252     0.08000
H3206       H  0.85133580  0.06491721  0.14500420     0.08000
H3207       H  0.84811393  0.07230696  0.11439285     0.08000
H3208       H  0.87159504  0.10618590  0.13321270     0.04700
C3209       C  0.59590569  0.36116049  0.37704349    -0.21100
C3210       C  0.61799960  0.39236771  0.38649538    -0.07600
C3211       C  0.64682759  0.41444669  0.37339478     0.13200
C3212       C  0.65259537  0.40425373  0.35249914    -0.21100
C3213       C  0.63084023  0.37291668  0.34366672    -0.07600
C3214       C  0.60196374  0.35116235  0.35619549     0.13200
C3215       C  0.57761708  0.31694088  0.34828239    -0.24500
H3216       H  0.57234394  0.34464329  0.38512291     0.14500
H3217       H  0.67455912  0.42126353  0.34278901     0.14500
C3218       C  0.67169577  0.44935275  0.38033186    -0.24400
H3219       H  0.55623763  0.30332581  0.36012704     0.04800
H3220       H  0.59106493  0.30335301  0.34808849     0.08000
H3221       H  0.56728187  0.31769352  0.33094441     0.08000
H3222       H  0.68657795  0.44906865  0.39548847     0.08000
H3223       H  0.65889423  0.46316381  0.38375108     0.08000
H3224       H  0.69007412  0.46340266  0.36659532     0.04700
C3225       C  0.65305756  0.25838433  0.37064894    -0.21100
C3226       C  0.62872532  0.25670892  0.35490965    -0.07600
C3227       C  0.59464113  0.23882907  0.36110887     0.13200
C3228       C  0.58610166  0.22391546  0.38303400    -0.21100
C3229       C  0.60959651  0.22068809  0.39692371    -0.07600
C3230       C  0.64374185  0.23964095  0.39126631     0.13200
C3231       C  0.66993619  0.23786359  0.40598964    -0.24500
H3232       H  0.67924829  0.27274200  0.36614594     0.14500
H3233       H  0.55982319  0.20837490  0.38705612     0.14500
C3234       C  0.56679758  0.23051900  0.34363012    -0.24400
H3235       H  0.69550666  0.25449169  0.39933064     0.04800
H3236       H  0.66528915  0.21232467  0.40635125     0.08000
H3237       H  0.66902506  0.24537678  0.42370750     0.08000
H3238       H  0.56979588  0.21781413  0.32890852     0.08000
H3239       H  0.56669206  0.25261432  0.33698466     0.08000
H3240       H  0.54176761  0.21378131  0.35105867     0.04700
C3241       C  0.75117735  0.35288760  0.36994559    -0.21100
C3242       C  0.74713406  0.37499041  0.35522462    -0.07600
C3243       C  0.75934839  0.40757025  0.36283005     0.13200
C3244       C  0.77817831  0.41777619  0.38343160    -0.21100
C3245       C  0.78610336  0.39684528  0.39625027    -0.07600
C3246       C  0.77075504  0.36349889  0.39012178     0.13200
C3247       C  0.77749417  0.33972489  0.40366779    -0.24500
H3248       H  0.74080157  0.32749243  0.36498400     0.14500
H3249       H  0.79074497  0.44359945  0.38782085     0.14500
C3250       C  0.75414444  0.43235559  0.34916326    -0.24400
H3251       H  0.76334733  0.31446067  0.39663839     0.04800
H3252       H  0.76974071  0.33839451  0.42175001     0.08000
H3253       H  0.80449936  0.34801690  0.40311568     0.08000
H3254       H  0.72702258  0.42252606  0.34633108     0.08000
H3255       H  0.76695678  0.43789005  0.33237989     0.08000
H3256       H  0.76446152  0.45602276  0.35831724     0.04700
C3257       C  0.56083047  0.45636037  0.19799882    -0.21100
C3258       C  0.55949172  0.42595025  0.19972489    -0.07600
C3259       C  0.54309274  0.40492733  0.21919080     0.13200
C3260       C  0.53540858  0.41785017  0.23792712    -0.21100
C3261       C  0.54148084  0.45009961  0.23721658    -0.07600
C3262       C  0.55192396  0.46858702  0.21633994     0.13200
C3263       C  0.55289863  0.50086372  0.21285320    -0.24500
H3264       H  0.56846994  0.47087954  0.18225949     0.14500
H3265       H  0.52489632  0.40277632  0.25334217     0.14500
C3266       C  0.53256088  0.36873694  0.22053477    -0.24400
H3267       H  0.55838467  0.51020148  0.19476006     0.04800
H3268       H  0.57295195  0.51976529  0.22380911     0.08000
H3269       H  0.52831648  0.99773687  0.21755130     0.08000
H3270       H  0.55407462  0.36483542  0.22087373     0.08000
H3271       H  0.51570100  0.35549038  0.20584373     0.08000
H3272       H  0.01829787  0.35670943  0.23635163     0.04700
C3273       C  0.60960500  0.34605667  0.19624860    -0.21100
C3274       C  0.63016054  0.37843898  0.18816656    -0.07600
C3275       C  0.65953503  0.39940839  0.20083641     0.13200
C3276       C  0.66404985  0.38999673  0.22319395    -0.21100
C3277       C  0.64012856  0.35965059  0.23310677    -0.07600
C3278       C  0.61353236  0.33649673  0.21876817     0.13200
C3279       C  0.58765292  0.30248973  0.22720619    -0.24500
H3280       H  0.58721200  0.32990819  0.18636043     0.14500
H3281       H  0.68567969  0.40723369  0.23325016     0.14500
C3282       C  0.68430645  0.43347644  0.19203461    -0.24400
H3283       H  0.56830453  0.28857396  0.21380485     0.04800
H3284       H  0.57466082  0.30433237  0.24233405     0.08000
H3285       H  0.59980050  0.28801848  0.23185309     0.08000
H3286       H  0.68494249  0.45217145  0.20353739     0.08000
H3287       H  0.67781803  0.43799654  0.17427396     0.08000
H3288       H  0.70958505  0.43644977  0.19173347     0.04700
C3289       C  0.53430015  0.06704043  0.21050651    -0.21100
C3290       C  0.55759166  0.07068870  0.22799530    -0.07600
C3291       C  0.59215076  0.08934045  0.22302827     0.13200
C3292       C  0.60203138  0.10706519  0.20206779    -0.21100
C3293       C  0.57850402  0.10878565  0.18719321    -0.07600
C3294       C  0.54441506  0.08627261  0.19033150     0.13200
C3295       C  0.51868528  0.08420163  0.17316473    -0.24500
H3296       H  0.50783018  0.05054769  0.21310212     0.14500
H3297       H  0.62842420  0.12402183  0.19911431     0.14500
C3298       C  0.61887046  0.09270663  0.23999276    -0.24400
H3299       H  0.99301641  0.06431023  0.17763176     0.04800
H3300       H  0.52405448  0.07762938  0.15634339     0.08000
H3301       H  0.51972360  0.10820717  0.17168234     0.08000
H3302       H  0.61577666  0.06816315  0.24409347     0.08000
H3303       H  0.61739955  0.10414132  0.25600429     0.08000
H3304       H  0.64436979  0.10859504  0.23300866     0.04700
C3305       C  0.59840968  0.21701722  0.21743509    -0.21100
C3306       C  0.62382875  0.22593928  0.20116231    -0.07600
C3307       C  0.65579152  0.25353699  0.20600060     0.13200
C3308       C  0.66287489  0.26642533  0.22830265    -0.21100
C3309       C  0.63837406  0.25425970  0.24548791    -0.07600
C3310       C  0.60532083  0.22978503  0.23963942     0.13200
C3311       C  0.57731915  0.21567015  0.25678173    -0.24500
H3312       H  0.57317982  0.19747853  0.21335230     0.14500
H3313       H  0.68757353  0.28721070  0.23198126     0.14500
C3314       C  0.68150089  0.27251810  0.18785850    -0.24400
H3315       H  0.55390220  0.19483012  0.24957759     0.04800
H3316       H  0.57157814  0.23480014  0.26166526     0.08000
H3317       H  0.58451711  0.20622580  0.27233608     0.08000
H3318       H  0.67011069  0.26772485  0.17031544     0.08000
H3319       H  0.70179484  0.26667023  0.18928273     0.08000
H3320       H  0.69271583  0.29944065  0.19031017     0.04700
C3321       C  0.93566762  0.43810617  0.21245480    -0.21100
C3322       C  0.93667676  0.46411332  0.22453481    -0.07600
C3323       C  0.92347040  0.48243410  0.21340013     0.13200
C3324       C  0.90599501  0.47141167  0.19230710    -0.21100
C3325       C  0.89981290  0.44177780  0.18279043    -0.07600
C3326       C  0.91714213  0.42660460  0.19188713     0.13200
C3327       C  0.91341643  0.39633098  0.18096621    -0.24500
H3328       H  0.94750780  0.42511554  0.21982952     0.14500
H3329       H  0.89270185  0.48310359  0.18509786     0.14500
C3330       C  0.92688205  0.01286600  0.22360658    -0.24400
H3331       H  0.92845930  0.38721109  0.19025703     0.04800
H3332       H  0.92214269  0.40238827  0.16295451     0.08000
H3333       H  0.88683345  0.37617033  0.18100485     0.08000
H3334       H  0.95358795  0.03158649  0.22652280     0.08000
H3335       H  0.91333632  0.00637400  0.24013849     0.08000
H3336       H  0.91595252  0.02432444  0.21207548     0.04700
C3337       C  0.78081537  0.40253936  0.21284213    -0.21100
C3338       C  0.78267651  0.37718044  0.20187389    -0.07600
C3339       C  0.77351808  0.34778920  0.21519420     0.13200
C3340       C  0.75904288  0.34346060  0.23696010    -0.21100
C3341       C  0.75556597  0.36827904  0.24674179    -0.07600
C3342       C  0.76805789  0.39880665  0.23488620     0.13200
C3343       C  0.76997389  0.42847382  0.24575707    -0.24500
H3344       H  0.79155537  0.42674144  0.20477793     0.14500
H3345       H  0.75012334  0.32031998  0.24638480     0.14500
C3346       C  0.77978573  0.32111764  0.20770601    -0.24400
H3347       H  0.78482395  0.45135809  0.23528489     0.04800
H3348       H  0.78224019  0.43250476  0.26302524     0.08000
H3349       H  0.74467305  0.42503142  0.24730942     0.08000
H3350       H  0.80629490  0.33183282  0.20278371     0.08000
H3351       H  0.76242654  0.30715439  0.19343827     0.08000
H3352       H  0.77502292  0.30279840  0.22179381     0.04700
C3353       C  0.95148334  0.35004259  0.11495008    -0.21100
C3354       C  0.94991491  0.31973735  0.11931556    -0.07600
C3355       C  0.91819841  0.29127214  0.12297842     0.13200
C3356       C  0.88941012  0.29425789  0.12333792    -0.21100
C3357       C  0.89133780  0.32497077  0.12004320    -0.07600
C3358       C  0.92281385  0.35296714  0.11490961     0.13200
C3359       C  0.92631903  0.38576496  0.10827601    -0.24500
H3360       H  0.97557418  0.37184198  0.11156810     0.14500
H3361       H  0.86527507  0.27251113  0.12667619     0.14500
C3362       C  0.91468255  0.25799838  0.12734550    -0.24400
H3363       H  0.95228099  0.40422697  0.10321585     0.04800
H3364       H  0.91996037  0.39593327  0.12291700     0.08000
H3365       H  0.90949804  0.38268852  0.09336974     0.08000
H3366       H  0.93002572  0.25892909  0.14265310     0.08000
H3367       H  0.92308604  0.25073791  0.11206382     0.08000
H3368       H  0.88831705  0.23862025  0.13061978     0.04700
C3369       C  0.70641132  0.10966121  0.12482004    -0.21100
C3370       C  0.67599802  0.10954101  0.12354067    -0.07600
C3371       C  0.64586765  0.07880262  0.12140177     0.13200
C3372       C  0.64695558  0.04949840  0.12107779    -0.21100
C3373       C  0.67720558  0.04937755  0.12294777    -0.07600
C3374       C  0.70743313  0.08013615  0.12486084     0.13200
C3375       C  0.74068875  0.08210998  0.12820712    -0.24500
H3376       H  0.72958616  0.13305221  0.12644580     0.14500
H3377       H  0.62365349  0.02623811  0.11938768     0.14500
C3378       C  0.61234067  0.07649418  0.11872735    -0.24400
H3379       H  0.76137325  0.10789026  0.13067462     0.04800
H3380       H  0.74665291  0.07266169  0.11293442     0.08000
H3381       H  0.73998764  0.06738818  0.14372300     0.08000
H3382       H  0.61278348  0.09220879  0.10391696     0.08000
H3383       H  0.60617869  0.08442590  0.13472104     0.08000
H3384       H  0.59186499  0.05085234  0.11546916     0.04700
C3385       C  0.73967494  0.42382060  0.88255969    -0.21100
C3386       C  0.70719881  0.41283884  0.89023296    -0.07600
C3387       C  0.68556225  0.41909940  0.87606089     0.13200
C3388       C  0.69821576  0.43921357  0.85623707    -0.21100
C3389       C  0.73189267  0.45347831  0.85049494    -0.07600
C3390       C  0.75219197  0.44386465  0.86291410     0.13200
C3391       C  0.78831205  0.45715773  0.85725173    -0.24500
H3392       H  0.75645000  0.41870796  0.89277863     0.14500
H3393       H  0.68277657  0.44680067  0.84665822     0.14500
C3394       C  0.64931931  0.40485674  0.88147367    -0.24400
H3395       H  0.79218045  0.43641474  0.85341258     0.04800
H3396       H  0.80504448  0.97428018  0.87384242     0.08000
H3397       H  0.79779969  0.97795118  0.84374112     0.08000
H3398       H  0.64664531  0.41392528  0.89821055     0.08000
H3399       H  0.63710601  0.37762818  0.88186195     0.08000
H3400       H  0.63620711  0.41181474  0.86818788     0.04700
C3401       C  0.58553893  0.27090607  0.87932829    -0.21100
C3402       C  0.58558027  0.29618354  0.89153315    -0.07600
C3403       C  0.56736885  0.31082836  0.88270069     0.13200
C3404       C  0.54925413  0.29933208  0.86210058    -0.21100
C3405       C  0.54609773  0.27161043  0.85148154    -0.07600
C3406       C  0.56525822  0.25786387  0.85966392     0.13200
C3407       C  0.56222158  0.22789911  0.84871640    -0.24500
H3408       H  0.60010728  0.26021838  0.88585733     0.14500
H3409       H  0.53277412  0.30823529  0.85642595     0.14500
C3410       C  0.56297449  0.33520044  0.89622246    -0.24400
H3411       H  0.57871767  0.22004383  0.85741525     0.04800
H3412       H  0.56950450  0.23363050  0.83037397     0.08000
H3413       H  0.53605243  0.20697408  0.84975334     0.08000
H3414       H  0.58695549  0.35842195  0.89868774     0.08000
H3415       H  0.55244510  0.32426180  0.91334854     0.08000
H3416       H  0.54558377  0.34176248  0.88734726     0.04700
C3417       C  0.74775975  0.30735466  0.86482957    -0.21100
C3418       C  0.72669113  0.27588771  0.85592605    -0.07600
C3419       C  0.69419563  0.25635364  0.86466139     0.13200
C3420       C  0.68444202  0.26763148  0.88324110    -0.21100
C3421       C  0.70678196  0.29763227  0.89394039    -0.07600
C3422       C  0.73854746  0.31835312  0.88394344     0.13200
C3423       C  0.76332840  0.35163098  0.89343142    -0.24500
H3424       H  0.77298944  0.32192991  0.85833343     0.14500
H3425       H  0.65969516  0.25190352  0.89020098     0.14500
C3426       C  0.67057217  0.22259303  0.85535576    -0.24400
H3427       H  0.78614175  0.36477823  0.88279232     0.04800
H3428       H  0.77134740  0.34884802  0.91113896     0.08000
H3429       H  0.75173091  0.36709845  0.89357779     0.08000
H3430       H  0.68163842  0.20661258  0.85750261     0.08000
H3431       H  0.66556862  0.22490695  0.83682372     0.08000
H3432       H  0.64624411  0.21028864  0.86434016     0.04700
C3433       C  0.80921457  0.05833787  0.05774566    -0.21100
C3434       C  0.77622095  0.04508652  0.06497374    -0.07600
C3435       C  0.75523180  0.05422202  0.05293398     0.13200
C3436       C  0.76623135  0.07272651  0.03243446    -0.21100
C3437       C  0.79805667  0.08311989  0.02367817    -0.07600
C3438       C  0.82024076  0.07669212  0.03702700     0.13200
C3439       C  0.85526069  0.08845782  0.02955244    -0.24500
H3440       H  0.82504136  0.05076055  0.06679428     0.14500
H3441       H  0.74901071  0.07761543  0.02258108     0.14500
C3442       C  0.71988071  0.04165046  0.06046642    -0.24400
H3443       H  0.86941364  0.08225217  0.04248119     0.04800
H3444       H  0.86840746  0.11549533  0.02749211     0.08000
H3445       H  0.85490472  0.07703046  0.01304995     0.08000
H3446       H  0.72032675  0.05082908  0.07784064     0.08000
H3447       H  0.70530197  0.01429220  0.06083405     0.08000
H3448       H  0.70658140  0.05037020  0.04869712     0.04700
C3449       C  0.68738132  0.41506873  0.04060451    -0.21100
C3450       C  0.72073311  0.42916728  0.04842113    -0.07600
C3451       C  0.74494734  0.43232797  0.03223403     0.13200
C3452       C  0.73532253  0.42308186  0.00925321    -0.21100
C3453       C  0.70205845  0.40911323  0.00164955    -0.07600
C3454       C  0.67781997  0.40555821  0.01769060     0.13200
C3455       C  0.64167259  0.39253301  0.01107292    -0.24500
H3456       H  0.66847383  0.41312845  0.05187819     0.14500
H3457       H  0.75397960  0.42565843  0.99726134     0.14500
C3458       C  0.78150830  0.44628287  0.03842663    -0.24400
H3459       H  0.62685370  0.39320608  0.02549025     0.04800
H3460       H  0.63012575  0.36652491  0.00615630     0.08000
H3461       H  0.63986313  0.40752484  0.99658066     0.08000
H3462       H  0.78429134  0.42962450  0.05098866     0.08000
H3463       H  0.79281731  0.47143440  0.04538779     0.08000
H3464       H  0.79644946  0.44828568  0.02322811     0.04700
C3465       C  0.94399393  0.23691629  0.05629494    -0.21100
C3466       C  0.95543785  0.21664050  0.06568493    -0.07600
C3467       C  0.94444015  0.18583910  0.05570107     0.13200
C3468       C  0.92671014  0.17828977  0.03475886    -0.21100
C3469       C  0.91830682  0.20014066  0.02380271    -0.07600
C3470       C  0.92641287  0.22965591  0.03515724     0.13200
C3471       C  0.91827286  0.25454826  0.02495614    -0.24500
H3472       H  0.95297789  0.26081149  0.06386367     0.18100
H3473       H  0.92126439  0.15597580  0.02625035     0.14500
C3474       C  0.95387565  0.16205169  0.06616357    -0.24400
H3475       H  0.92655787  0.27592051  0.03636793     0.04800
H3476       H  0.89094781  0.24289162  0.02256606     0.08000
H3477       H  0.93103652  0.26428348  0.00824673     0.08000
H3478       H  0.94375884  0.15512924  0.08382299     0.08000
H3479       H  0.98147058  0.17344649  0.06673011     0.08000
H3480       H  0.94329865  0.13906141  0.05615320     0.04700
C3481       C  0.61019770  0.28725712  0.01901425    -0.21100
C3482       C  0.59569345  0.29898649  0.00243171    -0.07600
C3483       C  0.57258730  0.30766735  0.00974363     0.13200
C3484       C  0.56323956  0.30230666  0.03290946    -0.21100
C3485       C  0.57353107  0.28532727  0.04855032    -0.07600
C3486       C  0.60029273  0.28137608  0.04206943     0.13200
C3487       C  0.62127752  0.27456454  0.05899995    -0.24500
H3488       H  0.63035675  0.28349780  0.01415305     0.14500
H3489       H  0.54453520  0.30790399  0.03825228     0.14500
C3490       C  0.55637446  0.32097467  0.99326792    -0.24400
H3491       H  0.64820952  0.29215424  0.05576817     0.04800
H3492       H  0.61635404  0.24913132  0.05687978     0.08000
H3493       H  0.61713855  0.27861260  0.07700477     0.08000
H3494       H  0.54372378  0.30352712  0.97896556     0.08000
H3495       H  0.57536321  0.34540477  0.98617885     0.08000
H3496       H  0.53726350  0.32426141  0.00187728     0.04700
C3497       C  0.82281666  0.23407060  0.03010793    -0.21100
C3498       C  0.80174575  0.20168702  0.02268224    -0.07600
C3499       C  0.77303241  0.18011307  0.03559173     0.13200
C3500       C  0.76486643  0.19241006  0.05442604    -0.21100
C3501       C  0.78433226  0.22567508  0.06022149    -0.07600
C3502       C  0.81448728  0.24631350  0.04865973     0.13200
C3503       C  0.83692552  0.28219537  0.05416666    -0.24500
H3504       H  0.84502003  0.25079246  0.02049934     0.14500
H3505       H  0.74141329  0.17690990  0.06317864     0.14500
C3506       C  0.75085527  0.14440288  0.02970147    -0.24400
H3507       H  0.86229811  0.28694739  0.05897364     0.04800
H3508       H  0.82757571  0.28980426  0.06858238     0.08000
H3509       H  0.83874055  0.29768822  0.03883331     0.08000
H3510       H  0.76612691  0.13250900  0.03006248     0.08000
H3511       H  0.73910099  0.14207848  0.01241877     0.08000
H3512       H  0.73043454  0.13103397  0.04229410     0.04700
C3513       C  0.72295784  0.30718128  0.04339047    -0.21100
C3514       C  0.71442002  0.27429452  0.04665797    -0.07600
C3515       C  0.69410054  0.25133291  0.02931437     0.13200
C3516       C  0.68851098  0.26307161  0.00808691    -0.21100
C3517       C  0.70116233  0.29676223  0.00381364    -0.07600
C3518       C  0.71677488  0.31867701  0.02240656     0.13200
C3519       C  0.72644070  0.35423371  0.02086990    -0.24500
H3520       H  0.73539437  0.32465486  0.05691079     0.14500
H3521       H  0.67445140  0.24571594  0.99460905     0.14500
C3522       C  0.67830578  0.21438288  0.03255614    -0.24400
H3523       H  0.73631576  0.36696521  0.03750728     0.04800
H3524       H  0.70377387  0.35541120  0.01625168     0.08000
H3525       H  0.74634231  0.36763227  0.00796703     0.08000
H3526       H  0.66033706  0.20554103  0.04687991     0.08000
H3527       H  0.69721531  0.20708170  0.03598081     0.08000
H3528       H  0.66389612  0.20096449  0.01699224     0.04700
C3529       C  0.73196305  0.76479713  0.06545156     0.85700
C3530       C  0.70762622  0.73709471  0.08144838    -0.54500
C3531       C  0.72220164  0.72521903  0.09656001     0.08700
C3532       C  0.76080517  0.74328045  0.09498952     0.19600
C3533       C  0.75721158  0.79141269  0.08220339    -0.55200
C3534       C  0.77276453  0.78041606  0.09741275     0.08800
C3535       C  0.75281865  0.75239256  0.05457818    -0.54800
C3536       C  0.76711797  0.74061372  0.06964449     0.09300
H3537       H  0.68085829  0.72752918  0.08089886     0.13800
H3538       H  0.77291955  0.73384719  0.10726146    -0.00400
H3539       H  0.76471418  0.81723031  0.08132841     0.14200
H3540       H  0.75572544  0.75235997  0.03604209     0.13900
C3541       C  0.54983781  0.76769715  0.06884205     0.85700
C3542       C  0.55024127  0.79176129  0.08607577    -0.54500
C3543       C  0.52547673  0.77791651  0.10197515     0.08700
C3544       C  0.00229107  0.73980687  0.09957665     0.19600
C3545       C  0.55119118  0.74065039  0.08375791    -0.55200
C3546       C  0.52635155  0.72570293  0.09983324     0.08800
C3547       C  0.51420698  0.74917343  0.05896842    -0.54800
C3548       C  0.98961948  0.73537293  0.07447908     0.09300
H3549       H  0.56708080  0.81825145  0.08446073     0.13800
H3550       H  0.98190740  0.72799545  0.11233001    -0.00400
H3551       H  0.56755991  0.73119176  0.08061552     0.14200
H3552       H  0.50854892  0.74684738  0.04054882     0.13900
C3553       C  0.73202835  0.95214069  0.06886759     0.85700
C3554       C  0.75848563  0.95174015  0.08503379    -0.54500
C3555       C  0.77252442  0.97670773  0.10054438     0.08700
C3556       C  0.75661346  0.49849322  0.10006537     0.19600
C3557       C  0.70563851  0.94977762  0.08577594    -0.55200
C3558       C  0.71799959  0.97451658  0.10158644     0.08800
C3559       C  0.74781140  0.98695793  0.05896656    -0.54800
C3560       C  0.76054418  0.51056287  0.07483860     0.09300
H3561       H  0.76613594  0.93361390  0.08408949     0.13800
H3562       H  0.76743801  0.51879458  0.11263266    -0.00400
H3563       H  0.67923261  0.93151396  0.08499942     0.14200
H3564       H  0.74853582  0.49131093  0.04104840     0.13900
O3565       O  0.71323113  0.87955936  0.91874532    -0.82600
C3566       C  0.60967713  0.80450349  0.97886128     0.96800
O3567       O  0.60909575  0.82569827  0.96512521    -0.71700
O3568       O  0.66395042  0.87930681  0.97129002    -0.75300
Al3569     Al  0.64372048  0.85653076  0.94454871     1.49000
C3570       C  0.69384465  0.89385613  0.97778807     0.92100
O3571       O  0.71167401  0.83762290  0.97471763    -0.81500
O3572       O  0.66441377  0.79078496  0.91825969    -0.75000
Al3573     Al  0.71068940  0.85770405  0.94657848     1.90100
O3574       O  0.67628082  0.78689166  0.96543755    -0.74100
O3575       O  0.60778650  0.78562642  0.92652959    -0.74000
O3576       O  0.62348137  0.78885940  0.97314677    -0.79600
O3577       O  0.62088837  0.83613053  0.91779409    -0.77800
O3578       O  0.66629552  0.83532616  0.94555467    -1.14000
O3579       O  0.67395086  0.89126039  0.92381029    -0.73100
C3580       C  0.69732406  0.89326690  0.91186359     0.97600
C3581       C  0.69644405  0.80746728  0.97990882     0.94000
Al3582     Al  0.64455320  0.79140713  0.94577520     1.55600
O3583       O  0.71544043  0.89303658  0.96546442    -0.77800
C3584       C  0.60540600  0.80616194  0.91333497     0.98100
C3585       C  0.69515925  0.80588031  0.91398226     0.93000
O3586       O  0.71586590  0.82734396  0.92782016    -0.83100
C3587       C  0.67639213  0.64141783  0.12382484     0.79500
N3588       N  0.70065655  0.66854028  0.11233482    -0.78800
C3589       C  0.70091070  0.69758948  0.11233498     0.81900
N3590       N  0.67704303  0.69947978  0.12386127    -0.78800
C3591       C  0.65287126  0.67303888  0.13538251     0.82000
N3592       N  0.65254386  0.64396576  0.13535119    -0.80500
C3593       C  0.67539154  0.51620312  0.12484653     0.79500
N3594       N  0.64807193  0.49012699  0.13440377    -0.78800
C3595       C  0.64313092  0.95947264  0.13444146     0.81900
N3596       N  0.66650398  0.95437668  0.12472862    -0.78800
C3597       C  0.69480972  0.48013839  0.11572351     0.82000
N3598       N  0.69892203  0.51101756  0.11560674    -0.80500
C3599       C  0.98229820  0.82077266  0.12202665     0.79500
N3600       N  0.00788988  0.84640271  0.13311923    -0.78800
C3601       C  0.53861542  0.84961830  0.13590698     0.81900
N3602       N  0.54404769  0.82654088  0.12664605    -0.78800
C3603       C  0.51837683  0.79997797  0.11547140     0.82000
N3604       N  0.98753976  0.79734546  0.11320408    -0.80500
C3605       C  0.85982340  0.82712210  0.12098275     0.79500
N3606       N  0.83102424  0.80278022  0.11126094    -0.78800
C3607       C  0.80252192  0.80419668  0.11109434     0.81900
N3608       N  0.80269582  0.82980902  0.12135446    -0.78800
C3609       C  0.83089355  0.85401025  0.13172809     0.82000
N3610       N  0.85945813  0.85254479  0.13148057    -0.80500
C3611       C  0.80441627  0.88885612  0.18012321     0.85700
C3612       C  0.80259945  0.91458453  0.16402731    -0.54500
C3613       C  0.82742452  0.92932500  0.14817339     0.08700
C3614       C  0.85148247  0.91529691  0.14894942     0.19600
C3615       C  0.80284541  0.86396024  0.16308450    -0.55200
C3616       C  0.82783100  0.87699162  0.14719155     0.08800
C3617       C  0.83990515  0.90611696  0.18983091    -0.54800
C3618       C  0.86442626  0.92034398  0.17409579     0.09300
H3619       H  0.78354776  0.92128151  0.16533485     0.13800
H3620       H  0.87163673  0.92656998  0.13601146    -0.00400
H3621       H  0.78364710  0.83821577  0.16302258     0.14200
H3622       H  0.84540689  0.90828057  0.20827675     0.13900
C3623       C  0.61499411  0.70159668  0.18078523     0.85700
C3624       C  0.64160208  0.70314751  0.16463336    -0.54500
C3625       C  0.62948306  0.67758632  0.14948693     0.08700
C3626       C  0.59144586  0.65277402  0.15156503     0.19600
C3627       C  0.58746433  0.69949594  0.16469361    -0.55200
C3628       C  0.57455321  0.67417366  0.14955016     0.08800
C3629       C  0.60046443  0.66731006  0.19184498    -0.54800
C3630       C  0.58850520  0.64201244  0.17703579     0.09300
H3631       H  0.66816919  0.72014194  0.16624379     0.13800
H3632       H  0.58147361  0.63204227  0.13937810    -0.00400
H3633       H  0.57810864  0.71635726  0.16577107     0.14200
H3634       H  0.60075780  0.66328430  0.21040247     0.13900
C3635       C  0.57617504  0.91710475  0.18099565     0.85700
C3636       C  0.59900020  0.94346033  0.16327980    -0.54500
C3637       C  0.61406723  0.93340750  0.14807828     0.08700
C3638       C  0.60272249  0.89604579  0.15144839     0.19600
C3639       C  0.55072432  0.88878376  0.16658196    -0.55200
C3640       C  0.56340771  0.87709974  0.15097251     0.08800
C3641       C  0.59902383  0.90620771  0.19188333    -0.54800
C3642       C  0.61222133  0.89435013  0.17707094     0.09300
H3643       H  0.60611016  0.96909206  0.16427532     0.13800
H3644       H  0.61392046  0.88684588  0.13924688    -0.00400
H3645       H  0.52409789  0.87893999  0.16861301     0.14200
H3646       H  0.60464723  0.90780708  0.21028195     0.13900
O3647       O  0.72843897  0.88194502  0.31651883    -0.82600
C3648       C  0.64701001  0.77145475  0.26697151     0.96800
O3649       O  0.67725027  0.78696687  0.27322565    -0.71700
O3650       O  0.73274554  0.84030918  0.28184998    -0.75300
Al3651     Al  0.69507628  0.81022764  0.30066838     1.49000
C3652       C  0.73452920  0.86135944  0.26697579     0.92100
O3653       O  0.66424889  0.87659705  0.27082115    -0.81500
O3654       O  0.62114020  0.84004126  0.31033564    -0.75000
Al3655     Al  0.69400772  0.87472405  0.29409131     1.90100
O3656       O  0.62800835  0.82478293  0.26503906    -0.74100
O3657       O  0.62446747  0.78937019  0.32387906    -0.74000
O3658       O  0.62511747  0.77160393  0.27927587    -0.79600
O3659       O  0.66247955  0.77550720  0.32042858    -0.77800
O3660       O  0.67240307  0.83111165  0.29662507    -1.14000
O3661       O  0.71469287  0.83215818  0.32823117    -0.73100
C3662       C  0.72897605  0.86257924  0.33192444     0.97600
C3663       C  0.64413546  0.85387476  0.25747732     0.94000
Al3664     Al  0.62800935  0.80827378  0.29475729     1.55600
O3665       O  0.71785400  0.87508737  0.26918595    -0.77800
C3666       C  0.63876079  0.77443235  0.33141704     0.98100
C3667       C  0.64150163  0.86307859  0.32329124     0.93000
O3668       O  0.67209904  0.87837263  0.31899619    -0.83100
C3669       C  0.98939993  0.63874591  0.12215104     0.79500
N3670       N  0.99195641  0.66687446  0.11262726    -0.78800
C3671       C  0.52165097  0.69595388  0.11308989     0.81900
N3672       N  0.54856799  0.69698598  0.12370985    -0.78800
C3673       C  0.54653233  0.66964498  0.13390984     0.82000
N3674       N  0.51689064  0.64045728  0.13305278    -0.80500
C3675       C  0.86025259  0.51412839  0.12396527     0.79500
N3676       N  0.85951853  0.48697765  0.13385382    -0.78800
C3677       C  0.83040298  0.95767726  0.13393905     0.81900
N3678       N  0.80216375  0.95537619  0.12445726    -0.78800
C3679       C  0.80239370  0.98196648  0.11441257     0.82000
N3680       N  0.83145096  0.51094691  0.11448504    -0.80500
C3681       C  0.94477497  0.87812210  0.51244765     0.85700
C3682       C  0.97100491  0.87849184  0.49654570    -0.54500
C3683       C  0.95814286  0.85255461  0.48171615     0.08700
C3684       C  0.91960405  0.82857036  0.48397860     0.19600
C3685       C  0.91908354  0.87781499  0.49521490    -0.55200
C3686       C  0.90427892  0.85117160  0.48115561     0.08800
C3687       C  0.92784340  0.84412976  0.52391550    -0.54800
C3688       C  0.91531859  0.81841058  0.50959548     0.09300
H3689       H  0.99744208  0.89691533  0.49713174     0.13800
H3690       H  0.90880766  0.80735451  0.47217818    -0.00400
H3691       H  0.91289546  0.89703518  0.49404050     0.14200
H3692       H  0.92669555  0.84051787  0.54257835     0.13900
C3693       C  0.91480836  0.59279917  0.51660131     0.85700
C3694       C  0.93861741  0.61869222  0.49934469    -0.54500
C3695       C  0.95146353  0.60748916  0.48328093     0.08700
C3696       C  0.93822480  0.56964160  0.48607697     0.19600
C3697       C  0.88812654  0.56576617  0.50174525    -0.55200
C3698       C  0.89932036  0.55290257  0.48579654     0.08800
C3699       C  0.93575958  0.57922272  0.52696099    -0.54800
C3700       C  0.94691523  0.56591755  0.51159211     0.09300
H3701       H  0.94706069  0.64461839  0.50070732     0.13800
H3702       H  0.94808760  0.55964319  0.47344449    -0.00400
H3703       H  0.86182351  0.55711846  0.50428917     0.14200
H3704       H  0.93982317  0.57821722  0.54544590     0.13900
C3705       C  0.62801979  0.56287117  0.51285357     0.85700
C3706       C  0.62948973  0.58909922  0.49621343    -0.54500
C3707       C  0.65495922  0.60166403  0.48092411     0.08700
C3708       C  0.67700391  0.58525326  0.48331278     0.19600
C3709       C  0.62625225  0.53582881  0.49740947    -0.55200
C3710       C  0.65178524  0.54706779  0.48188644     0.08800
C3711       C  0.66301460  0.57791369  0.52371550    -0.54800
C3712       C  0.68862379  0.59002306  0.50885816     0.09300
H3713       H  0.61240911  0.59835583  0.49734779     0.13800
H3714       H  0.69791164  0.59497786  0.47098768    -0.00400
H3715       H  0.60924936  0.50968003  0.50014026     0.14200
H3716       H  0.66740657  0.57869929  0.54227492     0.13900
O3717       O  0.54261068  0.54765547  0.65911272    -0.82600
C3718       C  0.97725285  0.93855633  0.60199621     0.96800
O3719       O  0.00119514  0.94294763  0.61510165    -0.71700
O3720       O  0.55172128  0.50085906  0.60654381    -0.75300
Al3721     Al  0.52868502  0.97988253  0.63431674     1.49000
C3722       C  0.56523702  0.53076308  0.60098209     0.92100
O3723       O  0.50942290  0.54209990  0.59827365    -0.81500
O3724       O  0.95509764  0.49960487  0.65271019    -0.75000
Al3725     Al  0.52551851  0.54405966  0.62860698     1.90100
O3726       O  0.95739544  0.50301258  0.60424202    -0.74100
O3727       O  0.95670193  0.94633323  0.65504175    -0.74000
O3728       O  0.95952740  0.95033776  0.60696093    -0.79600
O3729       O  0.50802220  0.95803577  0.66173876    -0.77800
O3730       O  0.50477850  0.50014587  0.63085222    -1.14000
O3731       O  0.56176066  0.51422587  0.65420681    -0.73100
C3732       C  0.55873034  0.53420264  0.66665938     0.97600
C3733       C  0.97987324  0.52412044  0.59089667     0.94000
Al3734     Al  0.96056760  0.97629684  0.63026989     1.55600
O3735       O  0.56550012  0.55054963  0.61515166    -0.77800
C3736       C  0.97844089  0.94514038  0.66805784     0.98100
C3737       C  0.96708991  0.53000149  0.65376993     0.93000
O3738       O  0.99104405  0.54934589  0.64113593    -0.83100
C3739       C  0.69493421  0.50409787  0.46121291     0.79500
N3740       N  0.68942651  0.52714132  0.47045679    -0.78800
C3741       C  0.65799551  0.52311664  0.46953043     0.81900
N3742       N  0.63206858  0.49570776  0.45896478    -0.78800
C3743       C  0.63782720  0.97240408  0.44995992     0.82000
N3744       N  0.66896429  0.97716762  0.45178638    -0.80500
C3745       C  0.81622166  0.99688473  0.45941339     0.79500
N3746       N  0.82040753  0.97412246  0.44842724    -0.78800
C3747       C  0.85105932  0.97656297  0.44850697     0.81900
N3748       N  0.87773309  0.00220944  0.45981545    -0.78800
C3749       C  0.87357263  0.52566602  0.47106402     0.82000
N3750       N  0.84284794  0.52222392  0.47040128    -0.80500
C3751       C  0.50131824  0.68780477  0.45331074     0.79500
N3752       N  0.47714419  0.66135804  0.46466534    -0.78800
C3753       C  0.47664573  0.63246158  0.46697112     0.81900
N3754       N  0.50119355  0.62966419  0.45683349    -0.78800
C3755       C  0.52626699  0.65627463  0.44512327     0.82000
N3756       N  0.52622753  0.68527651  0.44353563    -0.80500
C3757       C  0.99611164  0.80860852  0.45555752     0.79500
N3758       N  0.97433410  0.81467343  0.46645663    -0.78800
C3759       C  0.98043584  0.84622109  0.46765118     0.81900
N3760       N  0.00861821  0.87190719  0.45771150    -0.78800
C3761       C  0.53034385  0.86565498  0.44677079     0.82000
N3762       N  0.52357583  0.83420275  0.44619835    -0.80500
C3763       C  0.81759568  0.81340267  0.45618273     0.79500
N3764       N  0.84591834  0.81600555  0.46612985    -0.78800
C3765       C  0.87498576  0.84571734  0.46668446     0.81900
N3766       N  0.87549243  0.87257430  0.45713911    -0.78800
C3767       C  0.84786396  0.87077127  0.44722875     0.82000
N3768       N  0.81874726  0.84106048  0.44691435    -0.80500
C3769       C  0.69026636  0.68750097  0.45695418     0.79500
N3770       N  0.66192977  0.68523606  0.44737309    -0.78800
C3771       C  0.63266442  0.65573432  0.44691612     0.81900
N3772       N  0.63196124  0.62859571  0.45625138    -0.78800
C3773       C  0.65969604  0.63012831  0.46596836     0.82000
N3774       N  0.68892123  0.65973064  0.46611323    -0.80500
C3775       C  0.60360866  0.90427284  0.40495167     0.85700
C3776       C  0.62726470  0.92954584  0.42216540    -0.54500
C3777       C  0.61390346  0.94398358  0.43511328     0.08700
C3778       C  0.57550258  0.92877196  0.43039744     0.19600
C3779       C  0.57623683  0.87893130  0.42051615    -0.55200
C3780       C  0.56028381  0.89060161  0.43351573     0.08800
C3781       C  0.58742474  0.92033570  0.39143097    -0.54800
C3782       C  0.57323625  0.93348193  0.40402028     0.09300
H3783       H  0.65270622  0.93490418  0.42428581     0.13800
H3784       H  0.56356231  0.93929516  0.44071389    -0.00400
H3785       H  0.57030726  0.85353663  0.42148781     0.14200
H3786       H  0.58741182  0.92155526  0.37265122     0.13900
C3787       C  0.56479045  0.62893060  0.39981410     0.85700
C3788       C  0.58954227  0.62670536  0.41697964    -0.54500
C3789       C  0.60322167  0.65121551  0.43293756     0.08700
C3790       C  0.58921603  0.67515334  0.43083343     0.19600
C3791       C  0.53817493  0.62828622  0.41500211    -0.55200
C3792       C  0.55026863  0.65214084  0.43120163     0.08800
C3793       C  0.58545964  0.66375446  0.39013805    -0.54800
C3794       C  0.59681321  0.68798649  0.40569677     0.09300
H3795       H  0.59858837  0.60973507  0.41545521     0.13800
H3796       H  0.59947394  0.69503173  0.44371399    -0.00400
H3797       H  0.51159883  0.61105864  0.41244983     0.14200
H3798       H  0.58986080  0.66929400  0.37179432     0.13900
C3799       C  0.87954501  0.94012562  0.40175043     0.85700
C3800       C  0.88166267  0.96592904  0.41863222    -0.54500
C3801       C  0.85593837  0.95365761  0.43401044     0.08700
C3802       C  0.83054855  0.91576008  0.43138462     0.19600
C3803       C  0.87867449  0.91351525  0.41787762    -0.55200
C3804       C  0.85260345  0.89950077  0.43278861     0.08800
C3805       C  0.84478964  0.92547446  0.39102727    -0.54800
C3806       C  0.81926311  0.91254727  0.40590100     0.09300
H3807       H  0.90074283  0.99181385  0.41834289     0.13800
H3808       H  0.80953693  0.90514847  0.44366505    -0.00400
H3809       H  0.89726187  0.90614502  0.41755357     0.14200
H3810       H  0.84043933  0.92480352  0.37245035     0.13900
O3811       O  0.56198792  0.55197587  0.26572426    -0.82600
C3812       C  0.94703908  0.97723179  0.31353289     0.96800
O3813       O  0.96489602  0.00675331  0.30723420    -0.71700
O3814       O  0.52161497  0.55840073  0.29945552    -0.75300
Al3815     Al  0.98935932  0.52328053  0.28046876     1.49000
C3816       C  0.53959803  0.55649039  0.31554695     0.92100
O3817       O  0.55020226  0.98325644  0.30881767    -0.81500
O3818       O  0.51179069  0.94462104  0.27112629    -0.75000
Al3819     Al  0.55122032  0.51592558  0.28708410     1.90100
O3820       O  0.49711348  0.95151889  0.31620216    -0.74100
O3821       O  0.96410290  0.95372994  0.25610492    -0.74000
O3822       O  0.94534846  0.95464996  0.30127491    -0.79600
O3823       O  0.95420381  0.99383718  0.26005702    -0.77800
O3824       O  0.50750830  0.99764979  0.28471725    -1.14000
O3825       O  0.51280631  0.54143577  0.25330481    -0.73100
C3826       C  0.54354925  0.55391599  0.25004519     0.97600
C3827       C  0.52728216  0.96384408  0.32242272     0.94000
Al3828     Al  0.98146081  0.95443626  0.28602729     1.55600
O3829       O  0.55303583  0.53946042  0.31304452    -0.77800
C3830       C  0.95252291  0.97108042  0.24803060     0.98100
C3831       C  0.53531421  0.96350712  0.25779031     0.93000
O3832       O  0.55287523  0.99380250  0.26163570    -0.83100
C3833       C  0.89543042  0.79791427  0.73615935     0.85700
C3834       C  0.91597638  0.79304159  0.75536789    -0.54500
C3835       C  0.93138704  0.81826928  0.77059942     0.08700
C3836       C  0.92113153  0.84493939  0.76677562     0.19600
C3837       C  0.86898711  0.80059482  0.74973939    -0.55200
C3838       C  0.88187757  0.82511028  0.76573299     0.08800
C3839       C  0.91779529  0.83239741  0.72629520    -0.54800
C3840       C  0.93131323  0.85685555  0.74174286     0.09300
H3841       H  0.91934292  0.77196659  0.75639300     0.13800
H3842       H  0.93224232  0.86498949  0.77952809    -0.00400
H3843       H  0.84225117  0.78396024  0.74772120     0.14200
H3844       H  0.92254529  0.83733272  0.70791804     0.13900
C3845       C  0.70749026  0.60850243  0.73522801     0.85700
C3846       C  0.71128799  0.63311195  0.75353009    -0.54500
C3847       C  0.68540844  0.62105012  0.76874581     0.08700
C3848       C  0.65913955  0.58374991  0.76550386     0.19600
C3849       C  0.70533437  0.57977891  0.74997488    -0.55200
C3850       C  0.67991018  0.56609722  0.76547214     0.08800
C3851       C  0.67258453  0.59523113  0.72502380    -0.54800
C3852       C  0.64752659  0.58252025  0.74035484     0.09300
H3853       H  0.73185462  0.65830744  0.75411321     0.13800
H3854       H  0.63845170  0.57320311  0.77804589    -0.00400
H3855       H  0.72283216  0.57110176  0.74883924     0.14200
H3856       H  0.66771303  0.59475162  0.70652477     0.13900
C3857       C  0.92519548  0.57782802  0.72919525     0.85700
C3858       C  0.95198583  0.59929365  0.74682527    -0.54500
C3859       C  0.94166807  0.61272314  0.76290470     0.08700
C3860       C  0.90355802  0.60060801  0.76099104     0.19600
C3861       C  0.89795747  0.55099957  0.74430811    -0.55200
C3862       C  0.88596287  0.56219123  0.76090964     0.08800
C3863       C  0.91040344  0.59789736  0.71982767    -0.54800
C3864       C  0.89919355  0.60998549  0.73595459     0.09300
H3865       H  0.97755769  0.60457218  0.74596412     0.13800
H3866       H  0.89440329  0.61054456  0.77418765    -0.00400
H3867       H  0.88913972  0.52502650  0.74230812     0.14200
H3868       H  0.90876840  0.60228071  0.70143411     0.13900
O3869       O  0.88759540  0.72677249  0.59824476    -0.82600
C3870       C  0.77382738  0.64070604  0.64632433     0.96800
O3871       O  0.78878394  0.67057909  0.64019876    -0.71700
O3872       O  0.84176632  0.72699115  0.63374981    -0.75300
Al3873     Al  0.81390818  0.69043934  0.61355462     1.49000
C3874       C  0.86405927  0.73019112  0.64830361     0.92100
O3875       O  0.88454985  0.66433522  0.64316993    -0.81500
O3876       O  0.85013086  0.62154892  0.60612128    -0.75000
Al3877     Al  0.88129052  0.69308664  0.62015551     1.90100
O3878       O  0.83237130  0.62836870  0.65034194    -0.74100
O3879       O  0.79745182  0.62164012  0.59007629    -0.74000
O3880       O  0.77622144  0.62023728  0.63430258    -0.79600
O3881       O  0.78145561  0.65795733  0.59262013    -0.77800
O3882       O  0.83699259  0.67012027  0.61777694    -1.14000
O3883       O  0.83704189  0.71244161  0.58661064    -0.73100
C3884       C  0.86801214  0.72771557  0.58315794     0.97600
C3885       C  0.86224119  0.64539445  0.65729534     0.94000
Al3886     Al  0.81577151  0.62631215  0.62002338     1.55600
O3887       O  0.88054203  0.71629715  0.64516354    -0.77800
C3888       C  0.78172681  0.63499993  0.58189223     0.98100
C3889       C  0.87185166  0.64128322  0.59201143     0.93000
O3890       O  0.88587978  0.67179211  0.59491503    -0.83100
C3891       C  0.83104122  0.98166205  0.79112751     0.79500
N3892       N  0.80762252  0.98670939  0.80083612    -0.78800
C3893       C  0.81052049  0.51693932  0.79868500     0.81900
N3894       N  0.83654207  0.54248472  0.78698409    -0.78800
C3895       C  0.85921426  0.53737139  0.77632326     0.82000
N3896       N  0.85575618  0.00674353  0.77907177    -0.80500
C3897       C  0.83104698  0.85688329  0.79235019     0.79500
N3898       N  0.80813675  0.82905921  0.80383313    -0.78800
C3899       C  0.81006665  0.80123591  0.80397540     0.81900
N3900       N  0.83518377  0.80125983  0.79256844    -0.78800
C3901       C  0.85842275  0.82854830  0.78096632     0.82000
N3902       N  0.85633329  0.85645547  0.78093487    -0.80500
C3903       C  0.64413627  0.98123974  0.79148431     0.79500
N3904       N  0.67265605  0.98443874  0.80175945    -0.78800
C3905       C  0.70218083  0.51325218  0.80111980     0.81900
N3906       N  0.70301090  0.53969927  0.79050252    -0.78800
C3907       C  0.67542650  0.53755754  0.78019648     0.82000
N3908       N  0.64597879  0.00854823  0.78078775    -0.80500
C3909       C  0.51780866  0.85057568  0.79482125     0.79500
N3910       N  0.51520831  0.82176569  0.80322856    -0.78800
C3911       C  0.98551769  0.79289468  0.80238704     0.81900
N3912       N  0.95830082  0.79292865  0.79319019    -0.78800
C3913       C  0.96007447  0.82098104  0.78482593     0.82000
N3914       N  0.48960492  0.84941607  0.78581009    -0.80500
C3915       C  0.65118925  0.67069002  0.79223341     0.79500
N3916       N  0.67906874  0.69504747  0.80279895    -0.78800
C3917       C  0.70795446  0.69441419  0.80368649     0.81900
N3918       N  0.70901232  0.66924127  0.79372943    -0.78800
C3919       C  0.68154902  0.64460696  0.78305784     0.82000
N3920       N  0.65252455  0.64529388  0.78251192    -0.80500
C3921       C  0.52352253  0.66722611  0.79147539     0.79500
N3922       N  0.51846498  0.69059127  0.80077240    -0.78800
C3923       C  0.48770218  0.68789872  0.79893341     0.81900
N3924       N  0.96211472  0.66189332  0.78766336    -0.78800
C3925       C  0.96724546  0.63906706  0.77788793     0.82000
N3926       N  0.49798355  0.64217512  0.77992092    -0.80500
C3927       C  0.77653558  0.73264196  0.85026997     0.85700
C3928       C  0.75076479  0.70634918  0.83394324    -0.54500
C3929       C  0.73653927  0.71796163  0.81818892     0.08700
C3930       C  0.74942635  0.75543760  0.82027282     0.19600
C3931       C  0.80180099  0.76019864  0.83447020    -0.55200
C3932       C  0.78810103  0.77251417  0.81892674     0.08800
C3933       C  0.75644323  0.74647283  0.86079408    -0.54800
C3934       C  0.74304572  0.75895273  0.84556242     0.09300
H3935       H  0.74146595  0.68020392  0.83589598     0.13800
H3936       H  0.73798379  0.76523493  0.80771273    -0.00400
H3937       H  0.82859613  0.77010238  0.83612374     0.14200
H3938       H  0.75320186  0.74683229  0.87925171     0.13900
C3939       C  0.77486849  0.54662359  0.84514703     0.85700
C3940       C  0.80055167  0.54849959  0.82783455    -0.54500
C3941       C  0.78759614  0.52316643  0.81240694     0.08700
C3942       C  0.74929276  0.99885036  0.81591450     0.19600
C3943       C  0.74631092  0.54458390  0.83005976    -0.55200
C3944       C  0.73219427  0.51908381  0.81502816     0.08800
C3945       C  0.76102408  0.51219399  0.85587968    -0.54800
C3946       C  0.74723370  0.98790288  0.84123702     0.09300
H3947       H  0.82723100  0.56513991  0.82908442     0.13800
H3948       H  0.73835229  0.97807340  0.80373396    -0.00400
H3949       H  0.73681071  0.56118395  0.83204237     0.14200
H3950       H  0.76130070  0.50769998  0.87437981     0.13900
C3951       C  0.95299676  0.71843932  0.84456436     0.85700
C3952       C  0.95323527  0.74595849  0.82914702    -0.54500
C3953       C  0.47975498  0.76193538  0.81492746     0.08700
C3954       C  0.50323764  0.74735089  0.81607858     0.19600
C3955       C  0.95337811  0.69510650  0.82702506    -0.55200
C3956       C  0.48002445  0.70934878  0.81259646     0.08800
C3957       C  0.48718366  0.73464866  0.85601234    -0.54800
C3958       C  0.51326477  0.74982387  0.84154978     0.09300
H3959       H  0.93456279  0.75313633  0.82937511     0.13800
H3960       H  0.52489050  0.75975336  0.80435566    -0.00400
H3961       H  0.93506740  0.66897790  0.82671090     0.14200
H3962       H  0.49087602  0.73594048  0.87465619     0.13900
O3963       O  0.89788244  0.70990517  0.98719943    -0.82600
C3964       C  0.80892064  0.60575866  0.93524184     0.96800
O3965       O  0.83925413  0.61913079  0.94105029    -0.71700
O3966       O  0.89515184  0.67153599  0.94870242    -0.75300
Al3967     Al  0.86011685  0.63977747  0.96880714     1.49000
C3968       C  0.89346208  0.69214534  0.93492113     0.92100
O3969       O  0.82774440  0.71015697  0.95164138    -0.81500
O3970       O  0.78966659  0.66944287  0.98858526    -0.75000
Al3971     Al  0.86018850  0.70483995  0.96932479     1.90100
O3972       O  0.79168549  0.66007638  0.94124938    -0.74100
O3973       O  0.79163738  0.61640112  0.99615738    -0.74000
O3974       O  0.78805897  0.60463568  0.94927826    -0.79600
O3975       O  0.82942554  0.60356576  0.98863695    -0.77800
O3976       O  0.83788830  0.66113785  0.96914131    -1.14000
O3977       O  0.88316997  0.65924209  0.99649709    -0.73100
C3978       C  0.89871426  0.68937817  0.00127941     0.97600
C3979       C  0.80701876  0.69055398  0.93706816     0.94000
Al3980     Al  0.79348706  0.63920235  0.96887599     1.55600
O3981       O  0.87938971  0.70724829  0.94115658    -0.77800
C3982       C  0.80689511  0.60147603  0.00160107     0.98100
C3983       C  0.81141730  0.69095385  0.00192506     0.93000
O3984       O  0.84195864  0.70511865  0.99730460    -0.83100
C3985       C  0.91372877  0.72160799  0.87217918    -0.21100
C3986       C  0.92791037  0.70349876  0.86444004    -0.07600
C3987       C  0.92783347  0.67930184  0.87998814     0.13200
C3988       C  0.91667581  0.67647681  0.90268908    -0.21100
C3989       C  0.90586868  0.69714841  0.91082289    -0.07600
C3990       C  0.90414113  0.71990270  0.89502624     0.13200
C3991       C  0.89379891  0.74403072  0.90189486    -0.24500
H3992       H  0.91249952  0.73969817  0.86118901     0.14500
H3993       H  0.91688983  0.65814060  0.91431857     0.14500
C3994       C  0.94083566  0.65713068  0.87348929    -0.24400
H3995       H  0.89573066  0.76106004  0.88755628     0.04800
H3996       H  0.91007357  0.75942191  0.91622869     0.08000
H3997       H  0.86741960  0.73046610  0.90709277     0.08000
H3998       H  0.46690708  0.67138362  0.86790561     0.08000
H3999       H  0.92487142  0.64037834  0.85966549     0.08000
H4000       H  0.94021332  0.64119880  0.88821158     0.04700
C4001       C  0.75849124  0.56207274  0.88127164    -0.21100
C4002       C  0.78419062  0.57052716  0.86527025    -0.07600
C4003       C  0.81682075  0.59585779  0.87136261     0.13200
C4004       C  0.82391268  0.60581284  0.89442416    -0.21100
C4005       C  0.79885729  0.59349696  0.91127571    -0.07600
C4006       C  0.76527483  0.57275309  0.90410484     0.13200
C4007       C  0.73640342  0.56045702  0.92036692    -0.24500
H4008       H  0.73290748  0.54425530  0.87640701     0.14500
H4009       H  0.84929091  0.62433829  0.89906843     0.14500
C4010       C  0.84365395  0.61528995  0.85403069    -0.24400
H4011       H  0.71212792  0.54323506  0.91187188     0.04800
H4012       H  0.73457887  0.58152548  0.92653356     0.08000
H4013       H  0.73993753  0.54704698  0.93522153     0.08000
H4014       H  0.83293678  0.61340128  0.83644084     0.08000
H4015       H  0.86229896  0.60720439  0.85463410     0.08000
H4016       H  0.85671155  0.64193981  0.85806873     0.04700
C4017       C  0.80802844  0.74590188  0.88773224    -0.21100
C4018       C  0.79305997  0.72307731  0.86980027    -0.07600
C4019       C  0.78966920  0.69166641  0.87312713     0.13200
C4020       C  0.79289876  0.68145312  0.89551717    -0.21100
C4021       C  0.80237948  0.70279470  0.91430589    -0.07600
C4022       C  0.81133354  0.73597648  0.91010313     0.13200
C4023       C  0.82302661  0.76089177  0.92902086    -0.24500
H4024       H  0.81379685  0.77108049  0.88473715     0.14500
H4025       H  0.78950481  0.65703709  0.89807956     0.14500
C4026       C  0.78702566  0.67015657  0.85359546    -0.24400
H4027       H  0.82613019  0.78476855  0.92269502     0.04800
H4028       H  0.84769240  0.76603589  0.93596815     0.08000
H4029       H  0.80437449  0.75143375  0.94300203     0.08000
H4030       H  0.79168379  0.68318339  0.83666097     0.08000
H4031       H  0.76216522  0.64716861  0.85361300     0.08000
H4032       H  0.80659558  0.66333855  0.85581855     0.04700
C4033       C  0.58623027  0.69842241  0.78975056    -0.21100
C4034       C  0.55635076  0.66837227  0.79337592    -0.07600
C4035       C  0.55815839  0.63931492  0.79704036     0.13200
C4036       C  0.58929862  0.64107040  0.79645948    -0.21100
C4037       C  0.61908955  0.67094363  0.79241006    -0.07600
C4038       C  0.61743777  0.70007975  0.78896853     0.13200
C4039       C  0.64806693  0.73272893  0.78307357    -0.24500
H4040       H  0.58501279  0.72057957  0.78665048     0.14500
H4041       H  0.59040725  0.61880977  0.79934433     0.14500
C4042       C  0.52754683  0.60625197  0.80223510    -0.24400
H4043       H  0.64173848  0.75215383  0.77917701     0.04800
H4044       H  0.66005431  0.73017633  0.76763245     0.08000
H4045       H  0.66620509  0.74137683  0.79769407     0.08000
H4046       H  0.51075284  0.59725239  0.78687636     0.08000
H4047       H  0.51403964  0.60833280  0.81694924     0.08000
H4048       H  0.53416766  0.58723425  0.80695810     0.04700
C4049       C  0.55141828  0.91089436  0.78368163    -0.21100
C4050       C  0.55090594  0.88346097  0.79457941    -0.07600
C4051       C  0.58168998  0.88879293  0.80446113     0.13200
C4052       C  0.61096342  0.92055061  0.80319814    -0.21100
C4053       C  0.61142277  0.94794248  0.79212153    -0.07600
C4054       C  0.58062572  0.94238432  0.78209595     0.13200
C4055       C  0.57767956  0.96898720  0.76912633    -0.24500
H4056       H  0.52853051  0.90783076  0.77599953     0.14500
H4057       H  0.63389900  0.92383952  0.81101548     0.14500
C4058       C  0.58434341  0.86156814  0.81671602    -0.24400
H4059       H  0.55195240  0.96011714  0.76229724     0.04800
H4060       H  0.59442086  0.97726729  0.75413398     0.08000
H4061       H  0.58413179  0.98986034  0.78061012     0.08000
H4062       H  0.57808432  0.84133489  0.80465855     0.08000
H4063       H  0.56716536  0.85225806  0.83149980     0.08000
H4064       H  0.60998230  0.87019850  0.82363451     0.04700
C4065       C  0.80046296  0.91940744  0.79431110    -0.21100
C4066       C  0.83088191  0.94962009  0.79341985    -0.07600
C4067       C  0.86110553  0.94869295  0.79364825     0.13200
C4068       C  0.85989269  0.91825808  0.79327200    -0.21100
C4069       C  0.82960836  0.88808083  0.79323680    -0.07600
C4070       C  0.79935739  0.88877815  0.79432340     0.13200
C4071       C  0.76565235  0.85752688  0.79473786    -0.24500
H4072       H  0.77730640  0.91972814  0.79443050     0.14500
H4073       H  0.88312635  0.91807925  0.79317163     0.14500
C4074       C  0.89520889  0.97953152  0.79499742    -0.24400
H4075       H  0.74486555  0.86273835  0.79410872     0.04800
H4076       H  0.76306868  0.84324830  0.81089683     0.08000
H4077       H  0.76274548  0.84239851  0.77960906     0.08000
H4078       H  0.89619608  0.99488825  0.80945678     0.08000
H4079       H  0.90094926  0.99378239  0.77851914     0.08000
H4080       H  0.91538445  0.97374056  0.79811336     0.04700
C4081       C  0.90763710  0.65877688  0.71579982    -0.21100
C4082       C  0.88462636  0.62968829  0.72741089    -0.07600
C4083       C  0.85170649  0.61179610  0.71865804     0.13200
C4084       C  0.84482818  0.61873310  0.69619212    -0.21100
C4085       C  0.87033846  0.64291088  0.68214015    -0.07600
C4086       C  0.90189740  0.66444093  0.69264790     0.13200
C4087       C  0.93058030  0.69186678  0.67954312    -0.24500
H4088       H  0.93272551  0.67301254  0.72302688     0.14500
H4089       H  0.81998721  0.60340227  0.68916875     0.14500
C4090       C  0.82501216  0.58265454  0.73191917    -0.24400
H4091       H  0.95289271  0.70632608  0.69079430     0.04800
H4092       H  0.92317402  0.70908487  0.67209328     0.08000
H4093       H  0.93810105  0.68148811  0.66561183     0.08000
H4094       H  0.82210624  0.59073617  0.74901236     0.08000
H4095       H  0.83193999  0.56344292  0.73443839     0.08000
H4096       H  0.80043841  0.57133729  0.72272852     0.04700
C4097       C  0.73682965  0.59751811  0.70378338    -0.21100
C4098       C  0.73126261  0.62079627  0.71460120    -0.07600
C4099       C  0.73689632  0.64902730  0.70113122     0.13200
C4100       C  0.74906398  0.65346685  0.67869713    -0.21100
C4101       C  0.75567214  0.63086122  0.66855728    -0.07600
C4102       C  0.74807612  0.60168980  0.68104518     0.13200
C4103       C  0.74943998  0.57363589  0.67031187    -0.24500
H4104       H  0.72970727  0.57419883  0.71221531     0.14500
H4105       H  0.75263050  0.67466503  0.66863186     0.14500
C4106       C  0.72880401  0.67428109  0.70927564    -0.24400
H4107       H  0.74145741  0.55230510  0.68242784     0.04800
H4108       H  0.77509243  0.58146325  0.66500180     0.08000
H4109       H  0.73239379  0.56486413  0.65503636     0.08000
H4110       H  0.74647225  0.68900600  0.72320628     0.08000
H4111       H  0.70252332  0.66229473  0.71499097     0.08000
H4112       H  0.73163890  0.69224017  0.69537723     0.04700
C4113       C  0.90145184  0.75798674  0.68139812    -0.21100
C4114       C  0.87106489  0.74887190  0.67003813    -0.07600
C4115       C  0.84757930  0.75409843  0.68117715     0.13200
C4116       C  0.85446894  0.76650023  0.70370437    -0.21100
C4117       C  0.88460213  0.77456802  0.71563540    -0.07600
C4118       C  0.90862636  0.77028183  0.70373057     0.13200
C4119       C  0.94283862  0.77950925  0.71348409    -0.24500
H4120       H  0.92024229  0.75561761  0.67252032     0.14500
H4121       H  0.83677355  0.77175190  0.71123956     0.14500
C4122       C  0.81567738  0.74769880  0.66931431    -0.24400
H4123       H  0.95894178  0.77790837  0.70043797     0.04800
H4124       H  0.94044930  0.76198183  0.72749580     0.08000
H4125       H  0.95650755  0.80525873  0.71951341     0.08000
H4126       H  0.80084259  0.72158397  0.66450726     0.08000
H4127       H  0.82156300  0.76357140  0.65357206     0.08000
H4128       H  0.80006138  0.75295940  0.68053089     0.04700
C4129       C  0.91345957  0.93594957  0.34351636    -0.21100
C4130       C  0.93016512  0.96899409  0.33621797    -0.07600
C4131       C  0.93348602  0.99316924  0.35179934     0.13200
C4132       C  0.92050961  0.98355393  0.37404639    -0.21100
C4133       C  0.90342117  0.95034399  0.38143719    -0.07600
C4134       C  0.90066978  0.92619546  0.36573358     0.13200
C4135       C  0.88334685  0.88960696  0.37141637    -0.24500
H4136       H  0.91107554  0.91733972  0.33185343     0.14500
H4137       H  0.92225015  0.00237323  0.38501928     0.14500
C4138       C  0.94894552  0.52955768  0.34528150    -0.24400
H4139       H  0.88175640  0.87497216  0.35630277     0.04800
H4140       H  0.85731952  0.87989731  0.37698697     0.08000
H4141       H  0.89776971  0.88467632  0.38482283     0.08000
H4142       H  0.93698296  0.03252760  0.32982133     0.08000
H4143       H  0.97568499  0.53988913  0.34168258     0.08000
H4144       H  0.94755917  0.54450351  0.35914778     0.04700
C4145       C  0.55524616  0.57849325  0.37921017    -0.21100
C4146       C  0.55043112  0.60531933  0.37969340    -0.07600
C4147       C  0.53634539  0.61230755  0.35960645     0.13200
C4148       C  0.53481265  0.59728769  0.33880946    -0.21100
C4149       C  0.54361863  0.57305308  0.33780213    -0.07600
C4150       C  0.55170714  0.56217598  0.35877163     0.13200
C4151       C  0.55570806  0.53273253  0.36024790    -0.24500
H4152       H  0.56192578  0.57002237  0.39484036     0.14500
H4153       H  0.52597184  0.60418889  0.32334749     0.14500
C4154       C  0.52352367  0.63603525  0.35891250    -0.24400
H4155       H  0.55979149  0.52651861  0.37821026     0.04800
H4156       H  0.57784219  0.53792739  0.35021747     0.08000
H4157       H  0.53243822  0.51126711  0.35358277     0.08000
H4158       H  0.53860751  0.65673718  0.34672497     0.08000
H4159       H  0.52406876  0.64639527  0.37581775     0.08000
H4160       H  0.49708565  0.62300069  0.35275967     0.04700
C4161       C  0.52516077  0.93215751  0.38471495    -0.21100
C4162       C  0.55913455  0.95078913  0.39076369    -0.07600
C4163       C  0.58113636  0.97583606  0.37542705     0.13200
C4164       C  0.57044106  0.97705439  0.35291662    -0.21100
C4165       C  0.53672355  0.95754083  0.34608271    -0.07600
C4166       C  0.51343555  0.93586643  0.36279934     0.13200
C4167       C  0.97656276  0.91664199  0.35775985    -0.24500
H4168       H  0.50829702  0.91265893  0.39639080     0.14500
H4169       H  0.58873196  0.99459413  0.34089935     0.14500
C4170       C  0.61725424  0.99917949  0.38177362    -0.24400
H4171       H  0.96238058  0.90088021  0.37271834     0.04800
H4172       H  0.97128157  0.90041234  0.34286083     0.08000
H4173       H  0.96757886  0.93398443  0.35405273     0.08000
H4174       H  0.63370589  0.99541014  0.37034933     0.08000
H4175       H  0.62302408  0.99569619  0.39997198     0.08000
H4176       H  0.62272680  0.52546934  0.37955695     0.04700
C4177       C  0.75615344  0.77933528  0.46390891    -0.21100
C4178       C  0.78529049  0.78086725  0.45610916    -0.07600
C4179       C  0.78285432  0.75138727  0.44853318     0.13200
C4180       C  0.75178657  0.72144178  0.44927701    -0.21100
C4181       C  0.72265164  0.71993552  0.45706817    -0.07600
C4182       C  0.72514692  0.74936525  0.46479131     0.13200
C4183       C  0.69569066  0.74904463  0.47527330    -0.24500
H4184       H  0.75784935  0.80168530  0.46991059     0.14500
H4185       H  0.75008265  0.69908117  0.44328874     0.14500
C4186       C  0.81250742  0.75157812  0.43852845    -0.24400
H4187       H  0.70244877  0.77373307  0.48155143     0.04800
H4188       H  0.68658847  0.73144401  0.49016765     0.08000
H4189       H  0.67513155  0.74162231  0.46242163     0.08000
H4190       H  0.83267789  0.75889705  0.45168636     0.08000
H4191       H  0.82207127  0.76919236  0.42365876     0.08000
H4192       H  0.80582270  0.72685974  0.43235388     0.04700
C4193       C  0.98376846  0.72388189  0.47140566    -0.21100
C4194       C  0.49978045  0.71878879  0.45297401    -0.07600
C4195       C  0.51149429  0.74212496  0.43458401     0.13200
C4196       C  0.50763493  0.76978818  0.43546302    -0.21100
C4197       C  0.99265690  0.77540945  0.45422784    -0.07600
C4198       C  0.98010848  0.75168516  0.47233889     0.13200
C4199       C  0.96404751  0.75594635  0.49311311    -0.24500
H4200       H  0.97453620  0.70616846  0.48561885     0.14500
H4201       H  0.51713935  0.78773439  0.42138369     0.14500
C4202       C  0.52781221  0.73813881  0.41387378    -0.24400
H4203       H  0.95635230  0.73532519  0.50584024     0.04800
H4204       H  0.94129019  0.75663696  0.48771712     0.08000
H4205       H  0.98197784  0.77916815  0.50188436     0.08000
H4206       H  0.51069361  0.71414636  0.40568116     0.08000
H4207       H  0.55152080  0.73935170  0.41923138     0.08000
H4208       H  0.53403439  0.75796112  0.40069160     0.04700
C4209       C  0.73485824  0.99363095  0.44129766    -0.21100
C4210       C  0.72802746  0.50604734  0.46083241    -0.07600
C4211       C  0.74884076  0.51262979  0.48050278     0.13200
C4212       C  0.77654747  0.50815705  0.47971467    -0.21100
C4213       C  0.78402699  0.99676808  0.45975089    -0.07600
C4214       C  0.76234974  0.98891664  0.44041142     0.13200
C4215       C  0.76822515  0.97616543  0.41865431    -0.24500
H4216       H  0.71827777  0.98740669  0.42640739     0.14500
H4217       H  0.79253160  0.51352965  0.49488768     0.14500
C4218       C  0.74169188  0.52382409  0.50242644    -0.24400
H4219       H  0.74943367  0.97235289  0.40497286     0.04800
H4220       H  0.76636307  0.95205164  0.42234761     0.08000
H4221       H  0.79336391  0.99404222  0.41186500     0.08000
H4222       H  0.71624891  0.50543675  0.50847844     0.08000
H4223       H  0.74346926  0.54793872  0.49907946     0.08000
H4224       H  0.75992579  0.52706393  0.51639379     0.04700
C4225       C  0.60302057  0.53371475  0.72300875    -0.21100
C4226       C  0.61330172  0.56513963  0.73093528    -0.07600
C4227       C  0.60041147  0.58367135  0.72023541     0.13200
C4228       C  0.58089109  0.57201007  0.70002286    -0.21100
C4229       C  0.57485681  0.54262657  0.68995791    -0.07600
C4230       C  0.58460430  0.52233800  0.70245479     0.13200
C4231       C  0.57701256  0.48918198  0.69428941    -0.24500
H4232       H  0.61399308  0.52029477  0.73095146     0.14500
H4233       H  0.57244766  0.58715379  0.69123084     0.14500
C4234       C  0.60980760  0.61704270  0.72912645    -0.24400
H4235       H  0.58583889  0.47680924  0.70676605     0.04800
H4236       H  0.58959115  0.49172892  0.67777743     0.08000
H4237       H  0.54969492  0.47299392  0.69244865     0.08000
H4238       H  0.63731952  0.63390795  0.72850345     0.08000
H4239       H  0.60156728  0.61439665  0.74722136     0.08000
H4240       H  0.59779675  0.62851770  0.71875805     0.04700
C4241       C  0.91351333  0.53649632  0.69856721    -0.21100
C4242       C  0.93677727  0.56639276  0.70906186    -0.07600
C4243       C  0.96730033  0.58731914  0.69737975     0.13200
C4244       C  0.97667531  0.57440302  0.67969990    -0.21100
C4245       C  0.95458706  0.54313854  0.67096558    -0.07600
C4246       C  0.92170112  0.52499458  0.67939337     0.13200
C4247       C  0.89532384  0.99519165  0.66815249    -0.24500
H4248       H  0.88810743  0.52252464  0.70460629     0.14500
H4249       H  0.00121051  0.58941683  0.67221905     0.14500
C4250       C  0.98975370  0.62379934  0.70145657    -0.24400
H4251       H  0.87063812  0.98608158  0.67616470     0.04800
H4252       H  0.90012811  0.97452533  0.66881461     0.08000
H4253       H  0.89335811  0.00183024  0.64988208     0.08000
H4254       H  0.01344520  0.62849142  0.70998576     0.08000
H4255       H  0.97805132  0.63463224  0.71153975     0.08000
H4256       H  0.99583847  0.63738927  0.68464240     0.04700
C4257       C  0.98961506  0.91608575  0.70022290    -0.21100
C4258       C  0.96969129  0.92836343  0.69109572    -0.07600
C4259       C  0.94350770  0.92561134  0.70474448     0.13200
C4260       C  0.93526633  0.90683398  0.72539518    -0.21100
C4261       C  0.95236326  0.89066532  0.73255319    -0.07600
C4262       C  0.98164746  0.89787040  0.72087739     0.13200
C4263       C  0.00279949  0.88341501  0.72844444    -0.24500
H4264       H  0.01044103  0.91878786  0.69049068     0.14500
H4265       H  0.91286084  0.90142847  0.73441963     0.14500
C4266       C  0.92373004  0.94169728  0.69763100    -0.24400
H4267       H  0.02889071  0.90360511  0.73171510     0.04800
H4268       H  0.00273635  0.86744402  0.71476822     0.08000
H4269       H  0.99347373  0.86841290  0.74440480     0.08000
H4270       H  0.90944503  0.93067796  0.68150510     0.08000
H4271       H  0.94098147  0.96860637  0.69510634     0.08000
H4272       H  0.90545301  0.93824542  0.71093518     0.04700
C4273       C  0.72863881  0.58163154  0.53185696    -0.21100
C4274       C  0.72277331  0.60400795  0.51903771    -0.07600
C4275       C  0.74095168  0.63758387  0.52500802     0.13200
C4276       C  0.76046055  0.64706996  0.54531914    -0.21100
C4277       C  0.76359922  0.62399440  0.55942541    -0.07600
C4278       C  0.74906722  0.59113937  0.55177855     0.13200
C4279       C  0.75258322  0.56520028  0.56531798    -0.24500
H4280       H  0.71375256  0.55567777  0.52791102     0.14500
H4281       H  0.77281079  0.67264741  0.55036658     0.14500
C4282       C  0.73852332  0.66352095  0.51093703    -0.24400
H4283       H  0.73806557  0.54061113  0.55730400     0.04800
H4284       H  0.74327390  0.56292123  0.58307502     0.08000
H4285       H  0.77920937  0.57187802  0.56596366     0.08000
H4286       H  0.76400255  0.68410704  0.50674218     0.08000
H4287       H  0.72532444  0.65339951  0.49447652     0.08000
H4288       H  0.72519096  0.67314726  0.52066921     0.04700
C4289       C  0.61261565  0.58081022  0.54822975    -0.21100
C4290       C  0.60328655  0.55535097  0.53225325    -0.07600
C4291       C  0.57484989  0.52438999  0.53721175     0.13200
C4292       C  0.56300367  0.51748084  0.55982069    -0.21100
C4293       C  0.57756086  0.54120649  0.57720645    -0.07600
C4294       C  0.60087056  0.57405767  0.57081546     0.13200
C4295       C  0.61464847  0.60185980  0.58766226    -0.24500
H4296       H  0.63210549  0.60569363  0.54372771     0.14500
H4297       H  0.54134740  0.49364925  0.56366617     0.14500
C4298       C  0.55429691  0.49973508  0.51904847    -0.24400
H4299       H  0.63372414  0.62562471  0.57969397     0.04800
H4300       H  0.62669605  0.59637409  0.60255973     0.08000
H4301       H  0.59417689  0.60523803  0.59372813     0.08000
H4302       H  0.55663181  0.47750346  0.52122165     0.08000
H4303       H  0.56125915  0.51038779  0.50139917     0.08000
H4304       H  0.52729521  0.99251093  0.52054556     0.04700
C4305       C  0.87504548  0.59648328  0.57306603    -0.21100
C4306       C  0.88060051  0.62859333  0.57193015    -0.07600
C4307       C  0.89171126  0.64677363  0.55091609     0.13200
C4308       C  0.90137792  0.63427785  0.53304029    -0.21100
C4309       C  0.89961053  0.60359676  0.53511594    -0.07600
C4310       C  0.88299912  0.58319407  0.55471194     0.13200
C4311       C  0.87264485  0.54721048  0.55724231    -0.24500
H4312       H  0.86409857  0.58135376  0.58839944     0.14500
H4313       H  0.90944885  0.64857712  0.51721464     0.14500
C4314       C  0.89226214  0.67875434  0.54662467    -0.24400
H4315       H  0.84532747  0.53235740  0.56034883     0.04800
H4316       H  0.88605834  0.54376831  0.57222244     0.08000
H4317       H  0.87723709  0.53682287  0.54196641     0.08000
H4318       H  0.91144479  0.69788149  0.55784927     0.08000
H4319       H  0.86728139  0.67532237  0.55006876     0.08000
H4320       H  0.89869724  0.68794808  0.52856238     0.04700
C4321       C  0.93530855  0.51649827  0.53271042    -0.21100
C4322       C  0.95973426  0.54521844  0.52143716    -0.07600
C4323       C  0.99254866  0.56138749  0.53050712     0.13200
C4324       C  0.99864920  0.55258623  0.55262088    -0.21100
C4325       C  0.97239293  0.52827390  0.56618491    -0.07600
C4326       C  0.94053239  0.50875363  0.55546372     0.13200
C4327       C  0.91113150  0.48129830  0.56803133    -0.24500
H4328       H  0.91014190  0.50385874  0.52544368     0.14500
H4329       H  0.02380816  0.56649334  0.55974677     0.14500
C4330       C  0.02069044  0.59025632  0.51805332    -0.24400
H4331       H  0.88847606  0.46887757  0.55676926     0.04800
H4332       H  0.90457656  0.99307357  0.58449160     0.08000
H4333       H  0.41736711  0.46217240  0.57389020     0.08000
H4334       H  0.04128472  0.58526324  0.51548137     0.08000
H4335       H  0.01251189  0.59481081  0.50086368     0.08000
H4336       H  0.03028848  0.61280585  0.52842551     0.04700
C4337       C  0.92530523  0.78197451  0.53459195    -0.21100
C4338       C  0.90234976  0.78538957  0.52025814    -0.07600
C4339       C  0.86799215  0.76564928  0.52466391     0.13200
C4340       C  0.85761979  0.74550954  0.54455853    -0.21100
C4341       C  0.88095990  0.74632196  0.56102737    -0.07600
C4342       C  0.91551271  0.76449211  0.55563351     0.13200
C4343       C  0.94276388  0.76862159  0.57247801    -0.24500
H4344       H  0.95176834  0.79767692  0.53114814     0.14500
H4345       H  0.83108875  0.73089852  0.54796956     0.14500
C4346       C  0.84249552  0.76797189  0.50944757    -0.24400
H4347       H  0.96810314  0.78448110  0.56524097     0.04800
H4348       H  0.94038070  0.74459116  0.57716481     0.08000
H4349       H  0.94150256  0.78059411  0.58827411     0.08000
H4350       H  0.84488202  0.76196106  0.49156851     0.08000
H4351       H  0.84664297  0.79331207  0.50983521     0.08000
H4352       H  0.81654109  0.75054690  0.51511133     0.04700
C4353       C  0.98728969  0.91077770  0.54324184    -0.21100
C4354       C  0.95620810  0.90216935  0.53245951    -0.07600
C4355       C  0.93191867  0.90379219  0.54606861     0.13200
C4356       C  0.93953419  0.91372621  0.56888030    -0.21100
C4357       C  0.97029844  0.92222086  0.57939191    -0.07600
C4358       C  0.99435921  0.91999907  0.56649317     0.13200
C4359       C  0.52656929  0.92525100  0.57729171    -0.24500
H4360       H  0.00537688  0.90756372  0.53420757     0.14500
H4361       H  0.92065747  0.91454775  0.57887692     0.14500
C4362       C  0.89671923  0.89333177  0.53785634    -0.24400
H4363       H  0.54183176  0.92138694  0.56478928     0.04800
H4364       H  0.52109310  0.90757968  0.59192814     0.08000
H4365       H  0.54200435  0.95066541  0.58356934     0.08000
H4366       H  0.88345086  0.86752619  0.53188878     0.08000
H4367       H  0.89735827  0.91065591  0.52426010     0.08000
H4368       H  0.88119010  0.89404582  0.55175950     0.04700
C4369       C  0.92229641  0.54660917  0.11828728    -0.21100
C4370       C  0.89273404  0.54662295  0.12285012    -0.07600
C4371       C  0.89511514  0.57750217  0.12613456     0.13200
C4372       C  0.92676840  0.60685627  0.12577058    -0.21100
C4373       C  0.95639684  0.60671744  0.12162895    -0.07600
C4374       C  0.95366618  0.57608850  0.11687279     0.13200
C4375       C  0.98313243  0.57441547  0.10848850    -0.24500
H4376       H  0.92067901  0.52333135  0.11498954     0.14500
H4377       H  0.92841459  0.63017266  0.12895668     0.14500
C4378       C  0.86462379  0.57982327  0.13069824    -0.24400
H4379       H  0.97623199  0.54879528  0.10449419     0.04800
H4380       H  0.00336297  0.58356939  0.12161080     0.08000
H4381       H  0.99277202  0.58970290  0.09251694     0.08000
H4382       H  0.85137944  0.56426791  0.14596550     0.08000
H4383       H  0.84757119  0.57160314  0.11542360     0.08000
H4384       H  0.87129156  0.60552705  0.13416364     0.04700
C4385       C  0.59682303  0.86020104  0.37819922    -0.21100
C4386       C  0.61830540  0.89184158  0.38720137    -0.07600
C4387       C  0.64672263  0.91413396  0.37382769     0.13200
C4388       C  0.65236164  0.90398996  0.35286776    -0.21100
C4389       C  0.63087838  0.87245915  0.34424011    -0.07600
C4390       C  0.60276797  0.85023840  0.35728835     0.13200
C4391       C  0.57925639  0.81551458  0.34995440    -0.24500
H4392       H  0.57376688  0.84321930  0.38666227     0.14500
H4393       H  0.67393616  0.92122882  0.34290582     0.14500
C4394       C  0.67117608  0.94925359  0.38053458    -0.24400
H4395       H  0.55826114  0.80168288  0.36206319     0.04800
H4396       H  0.59358042  0.80277518  0.34999692     0.08000
H4397       H  0.56826001  0.81520136  0.33267101     0.08000
H4398       H  0.68630193  0.94940809  0.39566193     0.08000
H4399       H  0.65800214  0.96269100  0.38396423     0.08000
H4400       H  0.68932378  0.96338246  0.36669215     0.04700
C4401       C  0.65282150  0.75863788  0.36937264    -0.21100
C4402       C  0.62824265  0.75673447  0.35378233    -0.07600
C4403       C  0.59428248  0.73913303  0.36027975     0.13200
C4404       C  0.58612299  0.72472749  0.38237411    -0.21100
C4405       C  0.60981703  0.72162356  0.39613527    -0.07600
C4406       C  0.64385059  0.74036503  0.39017761     0.13200
C4407       C  0.67025791  0.73879961  0.40480036    -0.24500
H4408       H  0.67892927  0.77285508  0.36464567     0.14500
H4409       H  0.55991708  0.70939005  0.38666191     0.14500
C4410       C  0.56615949  0.73068489  0.34300214    -0.24400
H4411       H  0.69570408  0.75518154  0.39786412     0.04800
H4412       H  0.66551445  0.71322379  0.40543301     0.08000
H4413       H  0.66975463  0.74675888  0.42245928     0.08000
H4414       H  0.56879411  0.71766131  0.32833198     0.08000
H4415       H  0.56607603  0.75275533  0.33621984     0.08000
H4416       H  0.54125011  0.71418233  0.35067301     0.04700
C4417       C  0.75033667  0.85272426  0.36926794    -0.21100
C4418       C  0.74648384  0.87493460  0.35453483    -0.07600
C4419       C  0.75891087  0.90756497  0.36213113     0.13200
C4420       C  0.77743079  0.91758267  0.38286981    -0.21100
C4421       C  0.78524671  0.89656294  0.39568074    -0.07600
C4422       C  0.76991525  0.86324961  0.38945841     0.13200
C4423       C  0.77675861  0.83945280  0.40288987    -0.24500
H4424       H  0.73988804  0.82733364  0.36427199     0.14500
H4425       H  0.78997062  0.94337145  0.38735730     0.14500
C4426       C  0.75441110  0.93265546  0.34826832    -0.24400
H4427       H  0.76264733  0.81422918  0.39579285     0.04800
H4428       H  0.76907399  0.83801140  0.42100385     0.08000
H4429       H  0.80377455  0.84780174  0.40229046     0.08000
H4430       H  0.72740465  0.92328019  0.34522961     0.08000
H4431       H  0.76743268  0.93793209  0.33158460     0.08000
H4432       H  0.76499913  0.95640023  0.35735837     0.04700
C4433       C  0.56104966  0.95677644  0.19789910    -0.21100
C4434       C  0.55983773  0.92642218  0.19950582    -0.07600
C4435       C  0.54379581  0.90539552  0.21905101     0.13200
C4436       C  0.53629155  0.91825867  0.23791000    -0.21100
C4437       C  0.54209294  0.95040753  0.23724425    -0.07600
C4438       C  0.55221909  0.96889360  0.21635570     0.13200
C4439       C  0.55291579  0.00105037  0.21299632    -0.24500
H4440       H  0.56854263  0.97133737  0.18217338     0.14500
H4441       H  0.52604662  0.90318955  0.25336333     0.14500
C4442       C  0.53342663  0.86924160  0.22035185    -0.24400
H4443       H  0.55809339  0.01037030  0.19488693     0.04800
H4444       H  0.57305594  0.02004055  0.22387167     0.08000
H4445       H  0.52830859  0.49772770  0.21721012     0.08000
H4446       H  0.55498558  0.86542850  0.22030584     0.08000
H4447       H  0.51617647  0.85588619  0.20585262     0.08000
H4448       H  0.01985888  0.85728220  0.23653715     0.04700
C4449       C  0.61138104  0.84736478  0.19519437    -0.21100
C4450       C  0.63135985  0.88002368  0.18752638    -0.07600
C4451       C  0.66011333  0.90127898  0.20064296     0.13200
C4452       C  0.66398950  0.89189238  0.22315994    -0.21100
C4453       C  0.64032599  0.86110664  0.23266278    -0.07600
C4454       C  0.61485751  0.83766316  0.21777034     0.13200
C4455       C  0.58974357  0.80303581  0.22557335    -0.24500
H4456       H  0.58960687  0.83092142  0.18488814     0.14500
H4457       H  0.68485674  0.90943807  0.23362108     0.14500
C4458       C  0.68462820  0.93559782  0.19212316    -0.24400
H4459       H  0.57144919  0.78882590  0.21169433     0.04800
H4460       H  0.57540225  0.80366056  0.24031334     0.08000
H4461       H  0.60283533  0.78959343  0.23057570     0.08000
H4462       H  0.68438288  0.95395953  0.20350853     0.08000
H4463       H  0.67854294  0.94004835  0.17422338     0.08000
H4464       H  0.71016505  0.93915203  0.19228906     0.04700
C4465       C  0.53357465  0.56751116  0.21024087    -0.21100
C4466       C  0.55694821  0.57053100  0.22748217    -0.07600
C4467       C  0.59146891  0.58889194  0.22233541     0.13200
C4468       C  0.60129362  0.60675725  0.20141946    -0.21100
C4469       C  0.57783493  0.60899757  0.18679224    -0.07600
C4470       C  0.54365790  0.58711545  0.19022686     0.13200
C4471       C  0.51781440  0.58645635  0.17376605    -0.24500
H4472       H  0.50707961  0.55146752  0.21302373     0.14500
H4473       H  0.62770769  0.62338831  0.19831443     0.14500
C4474       C  0.61826644  0.59190383  0.23910087    -0.24400
H4475       H  0.99169345  0.56780208  0.17907392     0.04800
H4476       H  0.52239963  0.58044802  0.15649638     0.08000
H4477       H  0.51955323  0.61081906  0.17316532     0.08000
H4478       H  0.61493433  0.56726139  0.24315354     0.08000
H4479       H  0.61719331  0.60345252  0.25517438     0.08000
H4480       H  0.64371214  0.60755453  0.23197504     0.04700
C4481       C  0.59818287  0.71746088  0.21636022    -0.21100
C4482       C  0.62372847  0.72631380  0.20019439    -0.07600
C4483       C  0.65563938  0.75400588  0.20503479     0.13200
C4484       C  0.66245269  0.76724416  0.22722470    -0.21100
C4485       C  0.63785188  0.75511353  0.24433428    -0.07600
C4486       C  0.60489290  0.73044794  0.23848465     0.13200
C4487       C  0.57678481  0.71641199  0.25554275    -0.24500
H4488       H  0.57300400  0.69781608  0.21227464     0.14500
H4489       H  0.68708264  0.78812416  0.23092053     0.14500
C4490       C  0.68166630  0.77256117  0.18700481    -0.24400
H4491       H  0.55345936  0.69542760  0.24836323     0.04800
H4492       H  0.57090252  0.73552729  0.26020362     0.08000
H4493       H  0.58395903  0.70719665  0.27123091     0.08000
H4494       H  0.67031528  0.76828989  0.16945426     0.08000
H4495       H  0.70130193  0.76579548  0.18837989     0.08000
H4496       H  0.69380003  0.79955243  0.18960615     0.04700
C4497       C  0.93471753  0.93726759  0.21261497    -0.21100
C4498       C  0.93672525  0.96390596  0.22446179    -0.07600
C4499       C  0.92378304  0.98245185  0.21329700     0.13200
C4500       C  0.90571696  0.97119877  0.19242347    -0.21100
C4501       C  0.89883235  0.94124254  0.18307069    -0.07600
C4502       C  0.91560696  0.92554812  0.19228037     0.13200
C4503       C  0.91074585  0.89458849  0.18174827    -0.24500
H4504       H  0.94619725  0.92396560  0.22004100     0.14500
H4505       H  0.89273495  0.98320200  0.18520601     0.14500
C4506       C  0.92562078  0.51227871  0.22396294    -0.24400
H4507       H  0.92548180  0.88514408  0.19107147     0.04800
H4508       H  0.91909117  0.89993340  0.16364789     0.08000
H4509       H  0.88397098  0.87492472  0.18214445     0.08000
H4510       H  0.95213139  0.53133498  0.22717592     0.08000
H4511       H  0.91172680  0.50515381  0.24036904     0.08000
H4512       H  0.91450575  0.52358319  0.21245789     0.04700
C4513       C  0.77840010  0.90249792  0.21151510    -0.21100
C4514       C  0.78115338  0.87740600  0.20093621    -0.07600
C4515       C  0.77272130  0.84843374  0.21456281     0.13200
C4516       C  0.75829421  0.84422167  0.23631769    -0.21100
C4517       C  0.75414926  0.86881010  0.24578896    -0.07600
C4518       C  0.76570776  0.89894162  0.23354677     0.13200
C4519       C  0.76682087  0.92849421  0.24398430    -0.24500
H4520       H  0.78854294  0.92649468  0.20323908     0.14500
H4521       H  0.75001130  0.82137679  0.24600107     0.14500
C4522       C  0.77977820  0.82214253  0.20739655    -0.24400
H4523       H  0.78101122  0.95119008  0.23320515     0.04800
H4524       H  0.77935564  0.93332775  0.26118994     0.08000
H4525       H  0.74127247  0.92437517  0.24556811     0.08000
H4526       H  0.80634891  0.83329095  0.20249335     0.08000
H4527       H  0.76258720  0.80771157  0.19318541     0.08000
H4528       H  0.77541909  0.80415769  0.22164768     0.04700
C4529       C  0.95150142  0.85085532  0.11560747    -0.21100
C4530       C  0.94989139  0.82039978  0.11929429    -0.07600
C4531       C  0.91806650  0.79177327  0.12224589     0.13200
C4532       C  0.88925416  0.79471186  0.12270460    -0.21100
C4533       C  0.89118884  0.82550391  0.12005620    -0.07600
C4534       C  0.92278235  0.85371869  0.11551968     0.13200
C4535       C  0.92638920  0.88669212  0.10933766    -0.24500
H4536       H  0.97565033  0.87281232  0.11270274     0.14500
H4537       H  0.86505235  0.77280435  0.12553555     0.14500
C4538       C  0.91439003  0.75829164  0.12567203    -0.24400
H4539       H  0.95246393  0.90533410  0.10464568     0.04800
H4540       H  0.91966410  0.89640161  0.12405255     0.08000
H4541       H  0.90992245  0.88407010  0.09430563     0.08000
H4542       H  0.92935397  0.75834559  0.14095920     0.08000
H4543       H  0.92311371  0.75186525  0.11014463     0.08000
H4544       H  0.88793420  0.73877806  0.12847136     0.04700
C4545       C  0.70640441  0.60949339  0.12469770    -0.21100
C4546       C  0.67593598  0.60928383  0.12356675    -0.07600
C4547       C  0.64582114  0.57842171  0.12191609     0.13200
C4548       C  0.64699467  0.54913794  0.12190008    -0.21100
C4549       C  0.67731487  0.54912159  0.12356398    -0.07600
C4550       C  0.70752471  0.57999855  0.12502070     0.13200
C4551       C  0.74090661  0.58219073  0.12819612    -0.24500
H4552       H  0.72957323  0.63295667  0.12597050     0.14500
H4553       H  0.62369230  0.52580862  0.12056163     0.14500
C4554       C  0.61219052  0.57592079  0.11939877    -0.24400
H4555       H  0.76156467  0.60806926  0.13030719     0.04800
H4556       H  0.74666430  0.57241417  0.11301987     0.08000
H4557       H  0.74057811  0.56789110  0.14385902     0.08000
H4558       H  0.61228048  0.59122030  0.10442111     0.08000
H4559       H  0.60628319  0.58421722  0.13532696     0.08000
H4560       H  0.59172021  0.55016442  0.11649358     0.04700
C4561       C  0.74059793  0.92497737  0.88287874    -0.21100
C4562       C  0.70748299  0.91231493  0.88979414    -0.07600
C4563       C  0.68541931  0.91714634  0.87501929     0.13200
C4564       C  0.69827225  0.93820677  0.85562988    -0.21100
C4565       C  0.73240135  0.95425086  0.85075481    -0.07600
C4566       C  0.75322983  0.94564684  0.86354092     0.13200
C4567       C  0.78983845  0.96057648  0.85860641    -0.24500
H4568       H  0.75761710  0.92061502  0.89345968     0.14500
H4569       H  0.68236210  0.94484063  0.84567896     0.14500
C4570       C  0.64856323  0.90037640  0.87936003    -0.24400
H4571       H  0.79506707  0.94070557  0.85480575     0.04800
H4572       H  0.80450365  0.47085510  0.87215195     0.08000
H4573       H  0.79623208  0.47415508  0.84218676     0.08000
H4574       H  0.64402924  0.90861469  0.89584155     0.08000
H4575       H  0.63800420  0.87331515  0.87980801     0.08000
H4576       H  0.63513962  0.90605083  0.86549718     0.04700
C4577       C  0.58590850  0.77068099  0.87933613    -0.21100
C4578       C  0.58557385  0.79546517  0.89190206    -0.07600
C4579       C  0.56729334  0.81017148  0.88334866     0.13200
C4580       C  0.54907141  0.79889943  0.86277981    -0.21100
C4581       C  0.54620952  0.77150862  0.85182305    -0.07600
C4582       C  0.56581683  0.75806032  0.85955288     0.13200
C4583       C  0.56353339  0.72887925  0.84790863    -0.24500
H4584       H  0.60075469  0.76016242  0.88559358     0.14500
H4585       H  0.53264363  0.80795196  0.85723330     0.14500
C4586       C  0.56337725  0.83471768  0.89701838    -0.24400
H4587       H  0.58052839  0.72132568  0.85617623     0.04800
H4588       H  0.57065319  0.73537392  0.82958420     0.08000
H4589       H  0.53759314  0.70751417  0.84880884     0.08000
H4590       H  0.58753407  0.85791497  0.89909910     0.08000
H4591       H  0.55337500  0.82400933  0.91429593     0.08000
H4592       H  0.54578734  0.84124946  0.88843296     0.04700
C4593       C  0.74704208  0.80696706  0.86349361    -0.21100
C4594       C  0.72613324  0.77526723  0.85490865    -0.07600
C4595       C  0.69369119  0.75574960  0.86374768     0.13200
C4596       C  0.68396077  0.76718807  0.88225273    -0.21100
C4597       C  0.70630021  0.79730679  0.89280452    -0.07600
C4598       C  0.73782888  0.81816613  0.88250877     0.13200
C4599       C  0.76232061  0.85186021  0.89152488    -0.24500
H4600       H  0.77217334  0.82162186  0.85684433     0.14500
H4601       H  0.65931167  0.75143374  0.88934951     0.14500
C4602       C  0.67016092  0.72178549  0.85472707    -0.24400
H4603       H  0.78489769  0.86503339  0.88066139     0.04800
H4604       H  0.77083174  0.84978359  0.90922582     0.08000
H4605       H  0.75028333  0.86695506  0.89149241     0.08000
H4606       H  0.68137022  0.70595076  0.85703712     0.08000
H4607       H  0.66500235  0.72370710  0.83619479     0.08000
H4608       H  0.64587970  0.70953392  0.86376672     0.04700
C4609       C  0.80908375  0.55682984  0.05742103    -0.21100
C4610       C  0.77641666  0.54428666  0.06515485    -0.07600
C4611       C  0.75545538  0.55365767  0.05332422     0.13200
C4612       C  0.76628409  0.57214992  0.03280261    -0.21100
C4613       C  0.79770420  0.58187384  0.02359383    -0.07600
C4614       C  0.81967060  0.57459292  0.03644080     0.13200
C4615       C  0.85372400  0.58420672  0.02793918    -0.24500
H4616       H  0.82473873  0.54880216  0.06618034     0.14500
H4617       H  0.74911774  0.57739131  0.02321673     0.14500
C4618       C  0.72019365  0.54122462  0.06101908    -0.24400
H4619       H  0.86787252  0.57753649  0.04054437     0.04800
H4620       H  0.86810718  0.61111926  0.02511784     0.08000
H4621       H  0.85140670  0.57157586  0.01158848     0.08000
H4622       H  0.72079534  0.55034651  0.07842771     0.08000
H4623       H  0.70549854  0.51386848  0.06133859     0.08000
H4624       H  0.70687838  0.55006042  0.04936874     0.04700
C4625       C  0.68805807  0.91619991  0.03961379    -0.21100
C4626       C  0.72128938  0.93007567  0.04763684    -0.07600
C4627       C  0.74562633  0.93303877  0.03162187     0.13200
C4628       C  0.73611664  0.92328900  0.00870733    -0.21100
C4629       C  0.70293150  0.90933525  0.00096403    -0.07600
C4630       C  0.67864711  0.90634352  0.01675255     0.13200
C4631       C  0.64259728  0.89353126  0.00992648    -0.24500
H4632       H  0.66914092  0.91470406  0.05067367     0.14500
H4633       H  0.75481292  0.92556741  0.99686997     0.14500
C4634       C  0.78220176  0.94729196  0.03789200    -0.24400
H4635       H  0.62780124  0.89479558  0.02412098     0.04800
H4636       H  0.63080250  0.86734647  0.00538547     0.08000
H4637       H  0.64107209  0.90827393  0.99514490     0.08000
H4638       H  0.78512728  0.93079804  0.05052439     0.08000
H4639       H  0.79328900  0.97247198  0.04476389     0.08000
H4640       H  0.79725779  0.94935442  0.02274631     0.04700
C4641       C  0.94458433  0.73858936  0.05507032    -0.21100
C4642       C  0.95510648  0.71801885  0.06531849    -0.07600
C4643       C  0.94275316  0.68636838  0.05641408     0.13200
C4644       C  0.92469350  0.67803590  0.03558517    -0.21100
C4645       C  0.91741317  0.70007404  0.02363995    -0.07600
C4646       C  0.92661510  0.73051356  0.03407075     0.13200
C4647       C  0.91920731  0.75548033  0.02303754    -0.24500
H4648       H  0.95447015  0.76307848  0.06187265     0.18100
H4649       H  0.91824550  0.65492480  0.02791533     0.14500
C4650       C  0.95099034  0.66232046  0.06792046    -0.24400
H4651       H  0.92806540  0.77749675  0.03388674     0.04800
H4652       H  0.89193452  0.74430982  0.02066727     0.08000
H4653       H  0.93189744  0.76415261  0.00621693     0.08000
H4654       H  0.94157643  0.65734400  0.08579735     0.08000
H4655       H  0.97842037  0.67258492  0.06804456     0.08000
H4656       H  0.93901016  0.63842280  0.05890467     0.04700
C4657       C  0.61088969  0.78742996  0.01952654    -0.21100
C4658       C  0.59668126  0.79909076  0.00265429    -0.07600
C4659       C  0.57345725  0.80784977  0.00964520     0.13200
C4660       C  0.56358496  0.80246656  0.03270913    -0.21100
C4661       C  0.57345692  0.78541168  0.04856883    -0.07600
C4662       C  0.60049618  0.78162610  0.04250954     0.13200
C4663       C  0.62135704  0.77528770  0.05987388    -0.24500
H4664       H  0.63118645  0.78371391  0.01495761     0.14500
H4665       H  0.54484020  0.80816244  0.03778171     0.14500
C4666       C  0.55755517  0.82119426  0.99291537    -0.24400
H4667       H  0.64826871  0.79349213  0.05711364     0.04800
H4668       H  0.61726669  0.75016053  0.05774803     0.08000
H4669       H  0.61627714  0.77876850  0.07778081     0.08000
H4670       H  0.54507186  0.80371211  0.97861070     0.08000
H4671       H  0.57666583  0.84558534  0.98585551     0.08000
H4672       H  0.53835466  0.82458211  0.00129122     0.04700
C4673       C  0.82319125  0.73359639  0.03009899    -0.21100
C4674       C  0.80191380  0.70117509  0.02277532    -0.07600
C4675       C  0.77342049  0.67976497  0.03593237     0.13200
C4676       C  0.76546253  0.69232031  0.05473061    -0.21100
C4677       C  0.78505973  0.72563845  0.06036758    -0.07600
C4678       C  0.81522291  0.74600935  0.04875179     0.13200
C4679       C  0.83809320  0.78176698  0.05439723    -0.24500
H4680       H  0.84529437  0.75020425  0.02037271     0.14500
H4681       H  0.74207297  0.67696082  0.06358739     0.14500
C4682       C  0.75131172  0.64393139  0.03037487    -0.24400
H4683       H  0.86332732  0.78608433  0.05914809     0.04800
H4684       H  0.82895927  0.78942523  0.06891741     0.08000
H4685       H  0.84014722  0.79750282  0.03915949     0.08000
H4686       H  0.76674515  0.63220647  0.03070992     0.08000
H4687       H  0.73922192  0.64122615  0.01317856     0.08000
H4688       H  0.73115802  0.63069340  0.04317027     0.04700
C4689       C  0.72261579  0.80658565  0.04292255    -0.21100
C4690       C  0.71494089  0.77391192  0.04597749    -0.07600
C4691       C  0.69532874  0.75097985  0.02843058     0.13200
C4692       C  0.68995286  0.76273313  0.00716398    -0.21100
C4693       C  0.70186669  0.79632341  0.00312331    -0.07600
C4694       C  0.71632008  0.81801796  0.02194349     0.13200
C4695       C  0.72456459  0.85319011  0.02061414    -0.24500
H4696       H  0.73434661  0.82389528  0.05663292     0.14500
H4697       H  0.67660815  0.74547863  0.99348915     0.14500
C4698       C  0.68002133  0.71405692  0.03150884    -0.24400
H4699       H  0.73337943  0.86564077  0.03743771     0.04800
H4700       H  0.70157659  0.85356473  0.01554462     0.08000
H4701       H  0.74483969  0.86742062  0.00810582     0.08000
H4702       H  0.66173830  0.70480781  0.04564987     0.08000
H4703       H  0.69914759  0.70709641  0.03511534     0.08000
H4704       H  0.66606062  0.70068904  0.01580698     0.04700
loop_ 
_geom_bond_atom_site_label_1 
_geom_bond_atom_site_label_2 
_geom_bond_distance 
_geom_bond_site_symmetry_2 
_ccdc_geom_bond_type 
C1            C2   1.525       .  S
C1            C7   1.522       .  S
C1            C5   1.552       .  S
C1         C1162   1.534       .  S
C2            H9   1.085       .  S
C2            C3   1.365       .  D
C3            C4   1.548       .  S
C3           C61   1.475       .  S
C4            C8   1.529       .  S
C4            C6   1.552       .  S
C4           H10   1.111       .  S
C5           H11   1.081       .  S
C5            C6   1.373       .  D
C6           C79   1.487       .  S
C7           H12   1.089       .  S
C7            C8   1.351       .  D
C8         C1149   1.459       .  S
C13          C14   1.529       .  S
C13          C19   1.526       .  S
C13          C17   1.546       .  S
C13        C1133   1.537       .  S
C14          H21   1.087       .  S
C14          C15   1.363       .  D
C15        C2368   1.564       .  S
C15          C75   1.490       .  S
C16          C20   1.534       .  S
C16        C2367   1.564       .  S
C16        C2370   1.558       .  S
C16          H22   1.110       .  S
C17          H23   1.081       .  S
C17          C18   1.376       .  D
C18        C2368   1.558       .  S
C18         C143   1.493       .  S
C19          H24   1.089       .  S
C19        C2372   1.348   1_455  D
C20        C2371   1.348       .  D
C20        C1114   1.469       .  S
C25          C26   1.533       .  S
C25          C31   1.516       .  S
C25          C29   1.550       .  S
C25        C1098   1.538       .  S
C26          H33   1.083       .  S
C26          C27   1.368       .  D
C27        C1204   1.563       .  S
C27         C151   1.494       .  S
C28          C32   1.535   1_565  S
C28        C1203   1.564       .  S
C28        C1206   1.565       .  S
C28          H34   1.110   1_565  S
C29          H35   1.082       .  S
C29          C30   1.373       .  D
C30        C1204   1.565       .  S
C30        C1245   1.496       .  S
C31        H1212   1.090       .  S
C31        C1208   1.344       .  D
C32        C1207   1.345   1_545  D
C32        C1082   1.469       .  S
H36        C1207   1.090       .  S
O37          C52   1.256       .  A
O37         Al45   1.863       .  S
C38          O48   1.254       .  A
C38          O39   1.268       .  A
C38        C1130   1.483   1_556  S
O39         Al41   1.935       .  S
O40          C42   1.249       .  A
O40         Al41   1.859       .  S
Al41         O49   1.857       .  S
Al41         O51   1.933       .  S
Al41         O50   1.780       .  S
C42          O55   1.266       .  A
C42        C1101   1.496   1_556  S
O43          C53   1.254       .  A
O43         Al45   1.873       .  S
O44          C57   1.257       .  A
O44         Al54   1.872       .  S
Al45         O58   1.937       .  S
Al45         O55   1.935       .  S
Al45         O50   1.776       .  S
O46          C53   1.267       .  A
O46         Al54   1.935       .  S
O47          C56   1.262       .  A
O47         Al54   1.915       .  S
O48         Al54   1.850       .  S
O49          C56   1.249       .  A
O50         Al54   1.781       .  S
O51          C52   1.267       .  A
C52        C1034   1.486       .  S
C53        C1165   1.494   1_556  S
C56        C1050   1.469       .  S
C57          O58   1.267       .  A
C57        C1069   1.491       .  S
C59        C1018   1.503       .  S
C59          N60   1.368       .  A
C59          N64   1.369       .  A
N60          C61   1.363       .  A
C61          N62   1.354       .  A
N62          C63   1.351       .  A
C63          C97   1.482       .  S
C63          N64   1.363       .  A
C65        C1021   1.506       .  S
C65          N66   1.355   1_545  A
C65          N70   1.363       .  A
N66        C1243   1.360       .  A
C67         C109   1.508       .  S
C67          N68   1.366       .  A
C67        N1242   1.360       .  A
N68        C1245   1.375       .  A
C69        C1206   1.496       .  S
C69          N70   1.368   1_565  A
C69        N1244   1.375       .  A
C71        C1002   1.499       .  S
C71          N72   1.352       .  A
C71          N76   1.363       .  A
N72        C2425   1.358       .  A
C73         C112   1.505       .  S
C73          N74   1.365       .  A
C73        N2424   1.358       .  A
N74          C75   1.377       .  A
C75        N2428   1.369   1_455  A
N76        C2427   1.369       .  A
C77        C1005   1.500       .  S
C77          N78   1.363       .  A
C77          N82   1.370       .  A
N78          C79   1.360       .  A
C79          N80   1.359       .  A
N80          C81   1.361       .  A
C81          C88   1.492       .  S
C81          N82   1.365       .  A
C83          C84   1.543       .  S
C83          C89   1.518       .  S
C83          C87   1.532       .  S
C83         C986   1.538       .  S
C84          H91   1.086       .  S
C84          C85   1.366       .  D
C85          C86   1.561       .  S
C85         C149   1.496       .  S
C86          C90   1.539       .  S
C86          C88   1.568       .  S
C86          H92   1.110       .  S
C87          H93   1.079       .  S
C87          C88   1.370       .  D
C89          H94   1.089       .  S
C89          C90   1.352       .  D
C90         C973   1.474       .  S
C95          C96   1.545       .  S
C95         C101   1.526       .  S
C95          C99   1.524       .  S
C95         C954   1.539       .  S
C96         H103   1.079       .  S
C96          C97   1.374       .  D
C97          C98   1.550       .  S
C98         C102   1.535       .  S
C98         C100   1.563       .  S
C98         H104   1.111       .  S
C99         H105   1.087       .  S
C99         C100   1.365       .  D
C100        C145   1.491       .  S
C101        H106   1.089       .  S
C101        C102   1.354       .  D
C102        C941   1.472       .  S
C107        C108   1.537       .  S
C107        C113   1.512       .  S
C107        C111   1.512       .  S
C107        C906   1.531       .  S
C108        H115   1.081       .  S
C108        C109   1.376       .  D
C109        C110   1.569       .  S
C110        C114   1.551       .  S
C110        C112   1.572       .  S
C110        H116   1.110       .  S
C111        H117   1.086       .  S
C111        C112   1.367       .  D
C113        H118   1.088       .  S
C113        C114   1.356       .  D
C114        C922   1.473       .  S
O119        C134   1.267       .  A
O119       Al127   1.929       .  S
C120        O130   1.263       .  A
C120        O121   1.257       .  A
C120        C957   1.484       .  S
O121       Al123   1.882       .  S
O122        C124   1.266       .  A
O122       Al123   1.937       .  S
Al123       O131   1.938       .  S
Al123       O133   1.874       .  S
Al123       O132   1.778       .  S
C124        O137   1.249       .  A
C124        C989   1.477       .  S
O125        C135   1.269       .  A
O125       Al127   1.937       .  S
O126        C139   1.265       .  A
O126       Al136   1.936       .  S
Al127       O140   1.854       .  S
Al127       O137   1.845       .  S
Al127       O132   1.772       .  S
O128        C135   1.253       .  A
O128       Al136   1.870       .  S
O129        C138   1.253       .  A
O129       Al136   1.862       .  S
O130       Al136   1.916       .  S
O131        C138   1.268       .  A
O132       Al136   1.777       .  S
O133        C134   1.258       .  A
C134        C890   1.492       .  S
C135        C925   1.494       .  S
C138        C874   1.476       .  S
C139        O140   1.252       .  A
C139        C861   1.486       .  S
C141        C845   1.508       .  S
C141        N142   1.369       .  A
C141       N2498   1.370       .  A
N142       C2495   1.364       .  A
C143        N144   1.357       .  A
C143       N2494   1.364   1_455  A
N144        C145   1.360       .  A
C145        N146   1.364       .  A
N146       C2493   1.370   1_455  A
C147        C842   1.508       .  S
C147        N148   1.371   1_545  A
C147        N152   1.370       .  A
N148       C1325   1.364       .  A
C149        N150   1.362       .  A
C149       N1324   1.364       .  A
N150        C151   1.361       .  A
C151       N1328   1.363       .  A
N152       C1327   1.364   1_545  A
C153        C154   1.542       .  S
C153        C159   1.519       .  S
C153        C157   1.528       .  S
C153        C826   1.532       .  S
C154        H161   1.085       .  S
C154        C155   1.373       .  D
C155        C156   1.564       .  S
C155        C231   1.486       .  S
C156        C160   1.536       .  S
C156        C158   1.558       .  S
C156        H162   1.110       .  S
C157        H163   1.081       .  S
C157        C158   1.366       .  D
C158        C237   1.488       .  S
C159        H164   1.090       .  S
C159        C160   1.348       .  D
C160        C810   1.476       .  S
C165        C166   1.526       .  S
C165        C171   1.514       .  S
C165        C169   1.518       .  S
C165        C781   1.535       .  S
C166        H173   1.082       .  S
C166        C167   1.375       .  D
C167        C168   1.569       .  S
C167       C2577   1.500       .  S
C168        C172   1.553       .  S
C168        C170   1.560       .  S
C168        H174   1.110       .  S
C169        H175   1.087       .  S
C169        C170   1.372       .  D
C170        C221   1.501       .  S
C171        H176   1.088       .  S
C171        C172   1.360       .  D
C172        C794   1.475       .  S
C177        C178   1.518       .  S
C177        C183   1.529       .  S
C177        C181   1.547       .  S
C177        C762   1.532       .  S
C178        H185   1.088       .  S
C178        C179   1.361       .  D
C179        C180   1.568       .  S
C179        C245   1.496       .  S
C180        C184   1.546       .  S
C180        C182   1.572       .  S
C180        H186   1.110       .  S
C181        H187   1.082       .  S
C181        C182   1.376       .  D
C182        C213   1.503       .  S
C183        H188   1.089       .  S
C183        C184   1.351       .  D
C184        C746   1.485       .  S
O189        C204   1.267       .  A
O189       Al197   1.897       .  S
C190        O200   1.249       .  A
C190        O191   1.258       .  A
C190        C829   1.483       .  S
O191      Al2545   1.920       .  S
O192        C194   1.252   1_565  A
O192      Al1369   1.877       .  S
Al193       O201   1.867       .  S
Al193      O2543   1.920       .  S
Al193      O1368   1.873       .  S
Al193      O1379   1.930       .  S
Al193      O1378   1.783       .  S
C194        O207   1.258       .  A
C194        C765   1.479       .  S
O195       C2557   1.263   1_455  A
O195       Al197   1.882       .  S
O196        C209   1.247   1_565  A
O196      Al1382   1.857       .  S
Al197       O207   1.909       .  S
Al197      O2562   1.909   1_455  S
Al197       O202   1.784   1_545  S
O198        C205   1.274       .  A
O198      Al1382   1.944   1_545  S
O199        C208   1.266       .  A
O199       Al206   1.927       .  S
O200       Al206   1.835       .  S
O201       C2560   1.257   1_455  A
O202      Al1369   1.782       .  S
O202      Al3734   1.765   1_455  S
O203        C204   1.271       .  A
O203      Al1369   1.931   1_545  S
C204        C701   1.492       .  S
C205       O2547   1.263       .  A
C205        C797   1.498       .  S
Al206      O1372   1.860       .  S
Al206      O1374   1.943       .  S
Al206      O3730   1.766       .  S
C208       O2553   1.257       .  A
C208        C730   1.486       .  S
C209        O210   1.257       .  A
C209        C717   1.468       .  S
O210      Al2549   1.909       .  S
C211        C682   1.492       .  S
C211        N212   1.364       .  A
C211       N1392   1.340   1_545  A
N212        C213   1.373       .  A
C213        N214   1.384   1_545  A
N214       C1391   1.371       .  A
C215        C249   1.509       .  S
C215        N216   1.349       .  A
C215       N1390   1.372       .  A
N216       C1387   1.341       .  A
C217        C685   1.494       .  S
C217        N218   1.364       .  A
C217       N1398   1.345       .  A
N218        C219   1.369       .  A
C219        C273   1.499       .  S
C219        N220   1.380       .  A
N220       C1397   1.369       .  A
C221        N222   1.351       .  A
C221       N1396   1.369       .  A
N222       C1393   1.345   1_545  A
C223        C666   1.501   1_455  S
C223        N224   1.349   1_455  A
C223        N228   1.364       .  A
N224        C225   1.354       .  A
C225       C2519   1.501       .  S
C225        N226   1.365   1_655  A
N226        C227   1.377       .  A
C227        C264   1.490       .  S
C227        N228   1.368       .  A
C229        C669   1.498       .  S
C229        N230   1.361       .  A
C229       N2586   1.345       .  A
N230        C231   1.368       .  A
C231        N232   1.377       .  A
N232       C2585   1.364       .  A
C233        C252   1.500       .  S
C233        N234   1.352       .  A
C233       N2584   1.364       .  A
N234       C2581   1.345   1_455  A
C235        C650   1.504       .  S
C235        N236   1.369       .  A
C235        N240   1.371       .  A
N236        C237   1.363       .  A
C237        N238   1.355       .  A
N238        C239   1.355       .  A
C239        C276   1.492       .  S
C239        N240   1.365       .  A
C241        C653   1.502       .  S
C241        N242   1.368       .  A
C241        N246   1.370       .  A
N242        C243   1.362       .  A
C243        C261   1.491       .  S
C243        N244   1.358       .  A
N244        C245   1.360       .  A
C245        N246   1.364       .  A
C247        C248   1.518       .  S
C247        C253   1.504       .  S
C247        C251   1.520       .  S
C247        C858   1.536       .  S
C248        H255   1.079       .  S
C248        C249   1.380       .  D
C249        C250   1.567       .  S
C250        C254   1.549       .  S
C250        C252   1.570       .  S
C250        H256   1.110       .  S
C251        H257   1.083       .  S
C251        C252   1.376       .  D
C253        H258   1.090       .  S
C253        C254   1.352       .  D
C254        C634   1.470       .  S
C259        C260   1.541       .  S
C259        C265   1.516       .  S
C259        C263   1.527       .  S
C259        C618   1.526       .  S
C260        H267   1.083       .  S
C260        C261   1.372       .  D
C261        C262   1.564       .  S
C262        C266   1.542       .  S
C262        C264   1.567       .  S
C262        H268   1.110       .  S
C263        H269   1.087       .  S
C263        C264   1.363       .  D
C265        H270   1.088       .  S
C265        C266   1.350       .  D
C266        C877   1.476       .  S
C271        C272   1.548       .  S
C271        C277   1.518       .  S
C271        C275   1.527       .  S
C271        C605   1.534       .  S
C272        H279   1.083       .  S
C272        C273   1.373       .  D
C273        C274   1.571       .  S
C274        C278   1.540       .  S
C274        C276   1.561       .  S
C274        H280   1.110       .  S
C275        H281   1.083       .  S
C275        C276   1.366       .  D
C277        H282   1.090       .  S
C277        C278   1.347       .  D
C278        C893   1.476       .  S
O283        C298   1.264       .  A
O283       Al291   1.925       .  S
C284        O294   1.268       .  A
C284        O285   1.252       .  A
C284        C602   1.490       .  S
O285      Al1463   1.867       .  S
O286        C288   1.267       .  A
O286      Al2639   1.928   1_455  S
Al287      O1461   1.864       .  S
Al287      O2638   1.928       .  S
Al287      O1471   1.929   1_545  S
Al287      O2649   1.857       .  S
Al287      O3824   1.776   1_545  S
C288        O301   1.256       .  A
C288        C621   1.489       .  S
O289        C299   1.268       .  A
O289      Al1467   1.924       .  S
O290        C303   1.265       .  A
O290      Al2652   1.926   1_455  S
Al291       O301   1.873       .  S
Al291      O1465   1.923   1_545  S
Al291      O1480   1.865   1_545  S
Al291      O1472   1.772   1_545  S
O292        C299   1.259   1_655  A
O292      Al2652   1.895       .  S
O293        C302   1.259       .  A
O293       Al300   1.885       .  S
O294       Al300   1.926       .  S
O295        C302   1.266       .  A
O295      Al1463   1.929       .  S
O296      Al3815   1.776   1_455  S
O296      Al1467   1.771       .  S
O296      Al2652   1.773   1_455  S
O297        C298   1.255       .  A
O297      Al2639   1.857   1_455  S
C298        C938   1.483       .  S
C299        C637   1.496       .  S
Al300      O2642   1.925       .  S
Al300      O2644   1.896       .  S
Al300      O2648   1.773       .  S
C302        C970   1.496       .  S
C303        O304   1.256       .  A
C303        C909   1.474       .  S
O304      Al1467   1.866       .  S
C305        C306   1.535       .  S
C305        C311   1.517       .  S
C305        C309   1.538       .  S
C305        C589   1.538       .  S
C306        H313   1.081       .  S
C306        C307   1.368       .  D
C307        C308   1.562       .  S
C307        C385   1.500       .  S
C308        C312   1.539       .  S
C308        C310   1.571       .  S
C308        H314   1.110       .  S
C309        H315   1.085       .  S
C309        C310   1.374       .  D
C310        C373   1.496       .  S
C311        H316   1.090       .  S
C311        C312   1.349       .  D
C312        C733   1.473       .  S
C317        C318   1.538       .  S
C317        C323   1.519       .  S
C317        C321   1.540       .  S
C317        C570   1.543       .  S
C318        H325   1.081       .  S
C318        C319   1.373       .  D
C319        C320   1.563       .  S
C319        C391   1.494       .  S
C320        C324   1.533       .  S
C320        C322   1.562       .  S
C320        H326   1.110       .  S
C321        H327   1.085       .  S
C321        C322   1.367       .  D
C322        C379   1.496       .  S
C323        H328   1.089       .  S
C323        C324   1.352       .  D
C324        C698   1.466       .  S
C329        C330   1.524       .  S
C329        C335   1.509       .  S
C329        C333   1.529       .  S
C329        C714   1.525       .  S
C330        H337   1.082       .  S
C330        C331   1.368       .  D
C331        C332   1.560       .  S
C331        C397   1.487       .  S
C332        C336   1.542       .  S
C332        C334   1.563       .  S
C332        H338   1.110       .  S
C333        H339   1.084       .  S
C333        C334   1.373       .  D
C334        C367   1.496       .  S
C335        H340   1.089       .  S
C335        C336   1.356       .  D
C336        C554   1.469       .  S
O341        C356   1.261       .  A
O341       Al349   1.910       .  S
C342        O352   1.261       .  A
C342        O343   1.256       .  A
C342        C573   1.493       .  S
O343       Al345   1.882       .  S
O344        C346   1.267       .  A
O344       Al345   1.944       .  S
Al345       O353   1.934       .  S
Al345       O355   1.884       .  S
Al345       O354   1.774       .  S
C346        O359   1.255       .  A
C346        C586   1.491       .  S
O347        C357   1.266       .  A
O347       Al349   1.929       .  S
O348        C361   1.265       .  A
O348       Al358   1.927       .  S
Al349       O362   1.874       .  S
Al349       O359   1.852       .  S
Al349       O354   1.775       .  S
O350        C357   1.259       .  A
O350       Al358   1.886       .  S
O351        C360   1.259       .  A
O351       Al358   1.883       .  S
O352       Al358   1.922       .  S
O353        C360   1.271       .  A
O354       Al358   1.780       .  S
O355        C356   1.258       .  A
C356        C813   1.490       .  S
C357        C557   1.495       .  S
C360        C749   1.486       .  S
C361        O362   1.255       .  A
C361        C778   1.482       .  S
C363        C538   1.509       .  S
C363        N364   1.366       .  A
C363        N368   1.348       .  A
N364       C1541   1.373       .  A
C365        C413   1.498       .  S
C365        N366   1.374       .  A
C365       N1540   1.374   1_545  A
N366        C367   1.364       .  A
C367       N1544   1.354       .  A
N368       C1543   1.354       .  A
C369        C541   1.508       .  S
C369        N370   1.364       .  A
C369        N374   1.374       .  A
N370        C371   1.359       .  A
C371        C404   1.481       .  S
C371        N372   1.359       .  A
N372        C373   1.359       .  A
C373        N374   1.366       .  A
C375        C525   1.527       .  S
C375        N376   1.375       .  A
C375        N380   1.373       .  A
N376       C1553   1.368       .  A
C377        C416   1.491       .  S
C377        N378   1.356       .  A
C377       N1552   1.367   1_545  A
N378        C379   1.355       .  A
C379       N1556   1.366       .  A
N380       C1555   1.365       .  A
C381        C522   1.525       .  S
C381        N382   1.374       .  A
C381        N386   1.373   1_455  A
N382       C2735   1.368   1_455  A
C383       C2777   1.500       .  S
C383        N384   1.359       .  A
C383       N2734   1.369       .  A
N384        C385   1.358       .  A
C385       N2738   1.364       .  A
N386       C2737   1.364       .  A
C387        C509   1.496       .  S
C387        N388   1.361       .  A
C387        N392   1.370       .  A
N388        C389   1.357       .  A
C389        C401   1.482       .  S
C389        N390   1.360       .  A
N390        C391   1.361       .  A
C391        N392   1.366       .  A
C393        C506   1.498       .  S
C393        N394   1.366       .  A
C393        N398   1.352   1_455  A
N394        C395   1.370   1_455  A
C395        C428   1.488       .  S
C395       N2748   1.368       .  A
N396        C397   1.358       .  A
N396       C2747   1.367       .  A
C397       N2750   1.356       .  A
N398       C2749   1.356       .  A
C399        C400   1.538       .  S
C399        C405   1.532       .  S
C399        C403   1.529       .  S
C399        C490   1.531       .  S
C400        H407   1.082       .  S
C400        C401   1.369       .  D
C401        C402   1.557       .  S
C402        C406   1.538       .  S
C402        C404   1.553       .  S
C402        H408   1.111       .  S
C403        H409   1.087       .  S
C403        C404   1.365       .  D
C405        H410   1.088       .  S
C405        C406   1.350       .  D
C406       C1066   1.473       .  S
C411        C412   1.550       .  S
C411        C417   1.528       .  S
C411        C415   1.529       .  S
C411        C474   1.542       .  S
C412        H419   1.080       .  S
C412        C413   1.377       .  D
C413       C1590   1.562   1_545  S
C414        C418   1.532       .  S
C414       C1589   1.561       .  S
C414       C1592   1.557       .  S
C414        H420   1.110       .  S
C415        H421   1.087       .  S
C415        C416   1.365       .  D
C416       C1590   1.557   1_545  S
C417        H422   1.089       .  S
C417       C1594   1.351   1_545  D
C418       C1593   1.350       .  D
C418       C1037   1.465       .  S
C423        C424   1.546       .  S
C423        C427   1.531       .  S
C423       C2781   1.521       .  S
C423        C458   1.541       .  S
C424        H431   1.081       .  S
C424       C2777   1.367       .  D
C425        C426   1.559   1_655  S
C425       C2776   1.366       .  D
C425       C2735   1.500       .  S
C426        C430   1.527       .  S
C426        C428   1.566   1_455  S
C426        H432   1.110       .  S
C427        H433   1.083       .  S
C427       C2780   1.372       .  D
C428       C2779   1.372       .  D
C429       C2775   1.521       .  S
C429        H434   1.090       .  S
C429        C430   1.350   1_655  D
C430       C1053   1.462       .  S
O435        C450   1.261   1_556  A
O435       Al443   1.919       .  S
C436        O446   1.263       .  A
C436        O437   1.256       .  A
C436        C477   1.492       .  S
O437       Al439   1.881       .  S
O438        C440   1.270       .  A
O438       Al439   1.939       .  S
Al439       O447   1.944       .  S
Al439       O449   1.881       .  S
Al439       O448   1.773       .  S
C440        O453   1.253       .  A
C440        C461   1.493       .  S
O441        C451   1.262       .  A
O441       Al443   1.915       .  S
O442        C455   1.267   1_556  A
O442       Al452   1.931       .  S
Al443       O456   1.857       .  S
Al443       O453   1.857       .  S
Al443       O448   1.773       .  S
O444        C451   1.255       .  A
O444       Al452   1.874       .  S
O445        C454   1.256   1_556  A
O445       Al452   1.862       .  S
O446       Al452   1.920       .  S
O447        C454   1.270   1_556  A
O448       Al452   1.776       .  S
O449        C450   1.258   1_556  A
C450       C1117   1.488       .  S
C451        C493   1.477       .  S
C454       C1085   1.489       .  S
C455        O456   1.256   1_554  A
C455       C1146   1.473       .  S
C457        C458   1.409       .  A
C457        C462   1.398       .  A
C457        H464   1.073       .  S
C458        C459   1.430       .  A
C459        C466   1.511       .  S
C459        C460   1.407       .  A
C460        C461   1.402       .  A
C460        H465   1.084       .  S
C461        C462   1.420       .  A
C462        C463   1.512       .  S
C463        H467   1.111       .  S
C463        H468   1.110       .  S
C463        H469   1.103       .  S
C466        H471   1.107       .  S
C466        H472   1.111       .  S
C466       H2822   1.108       .  S
H470       C2818   1.109       .  S
C473        C474   1.415       .  A
C473        C478   1.402       .  A
C473        H480   1.084       .  S
C474        C475   1.413       .  A
C475        C482   1.502       .  S
C475        C476   1.406       .  A
C476        C477   1.412       .  A
C476        H481   1.082       .  S
C477        C478   1.414       .  A
C478        C479   1.508       .  S
C479        H483   1.111       .  S
C479        H484   1.110       .  S
C479        H485   1.110       .  S
C482        H486   1.109       .  S
C482        H487   1.109       .  S
C482        H488   1.111       .  S
C489        C490   1.411       .  A
C489        C494   1.397       .  A
C489        H496   1.085       .  S
C490        C491   1.414       .  A
C491        C498   1.505       .  S
C491        C492   1.401       .  A
C492        C493   1.409       .  A
C492        H497   1.085       .  S
C493        C494   1.413       .  A
C494        C495   1.509       .  S
C495        H499   1.111       .  S
C495        H500   1.109       .  S
C495        H501   1.111       .  S
C498        H502   1.109       .  S
C498        H503   1.110       .  S
C498        H504   1.111       .  S
C505        C506   1.404       .  A
C505        C510   1.414       .  A
C505        H512   1.084       .  S
C506        C507   1.422       .  A
C507        C514   1.509       .  S
C507        C508   1.408       .  A
C508        C509   1.402       .  A
C508        H513   1.084       .  S
C509        C510   1.421       .  A
C510        C511   1.507       .  S
C511        H515   1.111       .  S
C511        H516   1.110       .  S
C511        H517   1.109       .  S
C514        H518   1.108       .  S
C514        H519   1.111       .  S
C514        H520   1.111       .  S
C521        C522   1.408       .  A
C521        C526   1.413       .  A
C521        H528   1.081       .  S
C522        C523   1.425       .  A
C523        C530   1.504       .  S
C523        C524   1.420       .  A
C524        C525   1.412       .  A
C524        H529   1.083       .  S
C525        C526   1.425       .  A
C526        C527   1.504       .  S
C527        H531   1.111       .  S
C527        H532   1.110       .  S
C527        H533   1.109       .  S
C530        H534   1.109       .  S
C530        H535   1.109       .  S
C530        H536   1.110       .  S
C537        C538   1.406       .  A
C537        C542   1.417       .  A
C537        H544   1.084       .  S
C538        C539   1.428       .  A
C539        C546   1.511       .  S
C539        C540   1.407       .  A
C540        C541   1.401       .  A
C540        H545   1.084       .  S
C541        C542   1.426       .  A
C542        C543   1.508       .  S
C543        H547   1.111       .  S
C543        H548   1.110       .  S
C543        H549   1.110       .  S
C546        H550   1.110       .  S
C546        H551   1.108       .  S
C546        H552   1.111       .  S
C553        C554   1.403       .  A
C553        C558   1.406       .  A
C553        H560   1.085       .  S
C554        C555   1.404       .  A
C555        C562   1.507       .  S
C555        C556   1.401       .  A
C556        C557   1.411       .  A
C556        H561   1.078       .  S
C557        C558   1.422       .  A
C558        C559   1.506       .  S
C559        H563   1.111       .  S
C559        H564   1.104       .  S
C559        H565   1.110       .  S
C562        H566   1.110       .  S
C562        H567   1.110       .  S
C562        H568   1.111       .  S
C569        C570   1.417       .  A
C569        C574   1.405       .  A
C569        H576   1.078       .  S
C570        C571   1.429       .  A
C571        C578   1.511       .  S
C571        C572   1.404       .  A
C572        C573   1.402       .  A
C572        H577   1.080       .  S
C573        C574   1.414       .  A
C574        C575   1.510       .  S
C575        H579   1.111       .  S
C575        H580   1.104       .  S
C575        H581   1.110       .  S
C578        H582   1.107       .  S
C578        H583   1.109       .  S
C578        H584   1.111       .  S
C585        C586   1.398       .  A
C585        C590   1.395       .  A
C585        H592   1.082       .  S
C586        C587   1.412       .  A
C587        C594   1.504       .  S
C587        C588   1.411       .  A
C588        C589   1.416       .  A
C588        H593   1.080       .  S
C589        C590   1.432       .  A
C590        C591   1.515       .  S
C591        H595   1.111       .  S
C591        H596   1.107       .  S
C591        H597   1.107       .  S
C594        H598   1.103       .  S
C594        H599   1.110       .  S
C594        H600   1.111       .  S
C601        C602   1.398       .  A
C601        C606   1.399       .  A
C601        H608   1.084       .  S
C602        C603   1.421       .  A
C603       C1786   1.507       .  S
C603        C604   1.404       .  A
C604        C605   1.407       .  A
C604        H609   1.077       .  S
C605        C606   1.433       .  A
C606        C607   1.515       .  S
C607        H611   1.111       .  S
C607        H612   1.108       .  S
C607        H613   1.107       .  S
C610       C1779   1.507   1_545  S
C610        H615   1.102       .  S
C610        H616   1.111       .  S
C610       H1790   1.110       .  S
H614       C1786   1.110       .  S
C617        C618   1.393       .  A
C617        C622   1.394       .  A
C617        H624   1.079       .  S
C618        C619   1.431       .  A
C619        C626   1.511       .  S
C619        C620   1.401       .  A
C620        C621   1.399       .  A
C620        H625   1.084       .  S
C621        C622   1.420       .  A
C622        C623   1.491       .  S
C623        H627   1.111       .  S
C623        H628   1.108       .  S
C623        H629   1.108       .  S
C626        H630   1.110       .  S
C626        H631   1.104       .  S
C626        H632   1.110   1_455  S
C633        C634   1.400       .  A
C633        C638   1.410       .  A
C633        H640   1.084       .  S
C634        C635   1.411       .  A
C635        C642   1.507       .  S
C635        C636   1.394       .  A
C636        C637   1.405       .  A
C636        H641   1.084       .  S
C637        C638   1.424       .  A
C638       C2991   1.502   1_455  S
C639       C2990   1.502       .  S
C639        H643   1.111       .  S
C639        H644   1.110       .  S
C639        H645   1.104       .  S
C642        H646   1.110       .  S
C642        H647   1.110       .  S
C642       H1824   1.110       .  S
H648       C1818   1.110   1_545  S
C649        C650   1.407       .  A
C649        C654   1.415       .  A
C649        H656   1.084       .  S
C650        C651   1.419       .  A
C651        C658   1.507       .  S
C651        C652   1.414       .  A
C652        C653   1.406       .  A
C652        H657   1.084       .  S
C653        C654   1.419       .  A
C654        C655   1.507       .  S
C655        H659   1.111       .  S
C655        H660   1.110       .  S
C655        H661   1.107       .  S
C658        H662   1.107       .  S
C658        H663   1.110       .  S
C658        H664   1.111       .  S
C665        C670   1.409       .  A
C665       C3018   1.415       .  A
C665        H672   1.083       .  S
C666        C667   1.413   1_655  A
C666       C3017   1.415       .  A
C667        C674   1.506       .  S
C667        C668   1.407       .  A
C668       C3021   1.413   1_455  A
C668        H673   1.084       .  S
C669        C670   1.413       .  A
C669       C3020   1.413       .  A
C670        C671   1.508       .  S
C671        H675   1.111       .  S
C671        H676   1.110       .  S
C671        H677   1.110       .  S
C674        H678   1.110       .  S
C674        H679   1.109       .  S
C674        H680   1.111       .  S
C681        C686   1.408       .  A
C681       C1858   1.412       .  A
C681        H688   1.084       .  S
C682        C683   1.409       .  A
C682       C1857   1.412   1_545  A
C683        C690   1.503       .  S
C683        C684   1.408       .  A
C684       C1861   1.414   1_545  A
C684        H689   1.084       .  S
C685        C686   1.411       .  A
C685       C1860   1.412       .  A
C686        C687   1.505       .  S
C687        H691   1.111       .  S
C687        H692   1.109       .  S
C687        H693   1.111       .  S
C690        H694   1.110       .  S
C690        H695   1.109       .  S
C690        H696   1.111       .  S
C697        C698   1.396       .  A
C697        C702   1.399       .  A
C697        H704   1.084       .  S
C698        C699   1.408       .  A
C699        C706   1.507       .  S
C699        C700   1.404       .  A
C700        C701   1.410       .  A
C700        H705   1.084       .  S
C701        C702   1.424       .  A
C702        C703   1.506   1_545  S
C703        H707   1.111       .  S
C703        H708   1.109       .  S
C703        H709   1.102       .  S
C706        H710   1.110       .  S
C706        H711   1.110       .  S
C706        H712   1.111       .  S
C713        C714   1.411       .  A
C713        C718   1.396       .  A
C713        H720   1.080       .  S
C714        C715   1.429       .  A
C715        C722   1.512       .  S
C715        C716   1.399       .  A
C716        C717   1.398       .  A
C716        H721   1.084       .  S
C717        C718   1.410       .  A
C718       C1895   1.511   1_545  S
C719       C1894   1.510       .  S
C719        H723   1.111       .  S
C719        H724   1.104       .  S
C719        H725   1.110       .  S
C722        H726   1.107       .  S
C722        H727   1.109       .  S
C722        H728   1.111       .  S
C729        C730   1.402       .  A
C729        C734   1.395       .  A
C729        H736   1.084       .  S
C730        C731   1.419       .  A
C731        C738   1.503       .  S
C731        C732   1.408       .  A
C732        C733   1.401       .  A
C732        H737   1.085       .  S
C733        C734   1.414       .  A
C734        C735   1.505       .  S
C735        H739   1.110       .  S
C735        H740   1.110       .  S
C735        H741   1.106       .  S
C738        H742   1.109       .  S
C738        H743   1.110       .  S
C738        H744   1.111       .  S
C745        C746   1.406       .  A
C745        C750   1.405       .  A
C745        H752   1.084       .  S
C746        C747   1.411       .  A
C747        C754   1.500       .  S
C747        C748   1.404       .  A
C748        C749   1.405       .  A
C748        H753   1.085       .  S
C749        C750   1.417       .  A
C750        C751   1.508       .  S
C751        H755   1.111       .  S
C751        H756   1.111       .  S
C751        H757   1.110       .  S
C754        H758   1.111       .  S
C754        H759   1.103       .  S
C754        H760   1.110       .  S
C761        C762   1.415       .  A
C761        C766   1.397       .  A
C761        H768   1.085       .  S
C762        C763   1.411       .  A
C763        C770   1.504   1_545  S
C763        C764   1.402       .  A
C764        C765   1.410       .  A
C764        H769   1.082   1_545  S
C765        C766   1.410       .  A
C766        C767   1.508       .  S
C767        H771   1.111       .  S
C767        H772   1.110       .  S
C767        H773   1.110       .  S
C770        H774   1.110       .  S
C770        H775   1.108   1_565  S
C770       H1952   1.111       .  S
H776       C1946   1.111       .  S
C777        C778   1.399       .  A
C777        C782   1.402       .  A
C777        H784   1.085       .  S
C778        C779   1.417       .  A
C779        C786   1.508       .  S
C779        C780   1.400       .  A
C780        C781   1.407       .  A
C780        H785   1.078       .  S
C781        C782   1.429       .  A
C782        C783   1.512       .  S
C783        H787   1.111       .  S
C783        H788   1.111       .  S
C783        H789   1.103       .  S
C786        H790   1.103       .  S
C786        H791   1.111       .  S
C786        H792   1.111       .  S
C793        C794   1.405       .  A
C793        C798   1.407       .  A
C793        H800   1.085       .  S
C794        C795   1.405       .  A
C795        C802   1.504       .  S
C795        C796   1.403       .  A
C796        C797   1.413       .  A
C796        H801   1.084       .  S
C797        C798   1.421       .  A
C798        C799   1.507   1_545  S
C799        H803   1.111       .  S
C799       H1980   1.110       .  S
C799       H3157   1.108       .  S
C802        H806   1.111       .  S
C802        H807   1.111       .  S
C802        H808   1.110       .  S
H804       C1975   1.110       .  S
H805       C3151   1.108       .  S
C809        C810   1.404       .  A
C809        C814   1.402       .  A
C809        H816   1.085       .  S
C810        C811   1.406       .  A
C811        C818   1.503       .  S
C811        C812   1.402       .  A
C812        C813   1.411       .  A
C812        H817   1.083       .  S
C813        C814   1.422       .  A
C814        C815   1.512       .  S
C815        H819   1.111       .  S
C815        H820   1.106       .  S
C815        H821   1.110       .  S
C818        H822   1.108       .  S
C818        H823   1.110       .  S
C818        H824   1.111       .  S
C825        C826   1.417       .  A
C825        C830   1.409       .  A
C825        H832   1.079       .  S
C826        C827   1.431       .  A
C827        C834   1.515       .  S
C827        C828   1.392       .  A
C828        C829   1.398       .  A
C828        H833   1.084       .  S
C829        C830   1.412       .  A
C830       C3183   1.509       .  S
C831       C3182   1.509   1_455  S
C831        H835   1.111       .  S
C831        H836   1.110       .  S
C831        H837   1.105       .  S
C834        H838   1.109       .  S
C834        H839   1.107       .  S
C834        H840   1.111       .  S
C841        C842   1.407       .  A
C841        C846   1.413       .  A
C841        H848   1.084       .  S
C842        C843   1.421       .  A
C843        C850   1.507       .  S
C843        C844   1.416       .  A
C844        C845   1.408       .  A
C844        H849   1.084       .  S
C845        C846   1.419       .  A
C846        C847   1.506       .  S
C847        H851   1.111       .  S
C847        H852   1.102       .  S
C847        H853   1.110       .  S
C850        H854   1.110       .  S
C850        H855   1.110       .  S
C850        H856   1.111       .  S
C857        C858   1.413       .  A
C857        C862   1.399       .  A
C857        H864   1.078       .  S
C858        C859   1.430       .  A
C859        C866   1.511       .  S
C859        C860   1.401       .  A
C860        C861   1.401       .  A
C860        H865   1.083       .  S
C861        C862   1.410       .  A
C862        C863   1.500       .  S
C863        H867   1.111       .  S
C863        H868   1.100       .  S
C863        H869   1.110       .  S
C866        H870   1.107       .  S
C866        H871   1.108       .  S
C866        H872   1.111       .  S
C873        C874   1.404       .  A
C873        C878   1.405       .  A
C873        H880   1.084       .  S
C874        C875   1.415       .  A
C875        C882   1.513       .  S
C875        C876   1.400       .  A
C876        C877   1.405       .  A
C876        H881   1.085       .  S
C877        C878   1.411       .  A
C878        C879   1.502       .  S
C879        H883   1.111       .  S
C879        H884   1.109       .  S
C879        H885   1.107       .  S
C882        H886   1.110       .  S
C882        H887   1.102       .  S
C882        H888   1.111       .  S
C889        C890   1.409       .  A
C889        C894   1.400       .  A
C889        H896   1.083       .  S
C890        C891   1.420       .  A
C891        C898   1.507       .  S
C891        C892   1.405       .  A
C892        C893   1.404       .  A
C892        H897   1.084       .  S
C893        C894   1.409       .  A
C894        C895   1.503       .  S
C895        H899   1.111       .  S
C895        H900   1.109       .  S
C895        H901   1.109       .  S
C898        H902   1.108       .  S
C898        H903   1.110       .  S
C898        H904   1.111       .  S
C905        C906   1.403       .  A
C905        C910   1.395       .  A
C905        H912   1.077       .  S
C906        C907   1.432       .  A
C907        C914   1.516       .  S
C907        C908   1.403       .  A
C908        C909   1.397       .  A
C908        H913   1.084       .  S
C909        C910   1.414       .  A
C910        C911   1.506       .  S
C911        H915   1.111       .  S
C911        H916   1.105       .  S
C911       H2093   1.111       .  S
C914        H918   1.104       .  S
C914        H919   1.108       .  S
C914       H3272   1.111       .  S
H917       C2087   1.111   1_565  S
H920       C3266   1.111       .  S
C921        C922   1.399       .  A
C921        C926   1.406       .  A
C921        H928   1.085       .  S
C922        C923   1.412       .  A
C923        C930   1.505       .  S
C923        C924   1.402       .  A
C924        C925   1.406       .  A
C924        H929   1.084       .  S
C925        C926   1.426       .  A
C926        C927   1.509       .  S
C927        H931   1.111       .  S
C927        H932   1.110       .  S
C927        H933   1.108       .  S
C930        H934   1.110       .  S
C930        H935   1.110       .  S
C930        H936   1.110       .  S
C937        C938   1.410       .  A
C937        C942   1.395       .  A
C937        H944   1.081       .  S
C938        C939   1.417       .  A
C939        C946   1.508       .  S
C939        C940   1.402       .  A
C940        C941   1.406       .  A
C940        H945   1.085       .  S
C941        C942   1.400       .  A
C942        C943   1.499       .  S
C943        H948   1.107       .  S
C943        H949   1.108       .  S
C943       H3299   1.111   1_455  S
C946        H950   1.109       .  S
C946        H951   1.110       .  S
C946        H952   1.111       .  S
H947       C3295   1.111       .  S
C953        C954   1.414       .  A
C953        C958   1.398       .  A
C953        H960   1.084       .  S
C954        C955   1.417       .  A
C955        C962   1.504       .  S
C955        C956   1.405       .  A
C956        C957   1.409       .  A
C956        H961   1.084       .  S
C957        C958   1.412       .  A
C958        C959   1.509       .  S
C959        H963   1.111       .  S
C959        H964   1.109       .  S
C959        H965   1.111       .  S
C962        H966   1.109       .  S
C962        H967   1.110       .  S
C962        H968   1.112       .  S
C969        C970   1.411       .  A
C969        C974   1.402       .  A
C969        H976   1.083       .  S
C970        C971   1.422       .  A
C971       C2154   1.508       .  S
C971        C972   1.407       .  A
C972        C973   1.403       .  A
C972        H977   1.085       .  S
C973        C974   1.406       .  A
C974        C975   1.506       .  S
C975        H979   1.111       .  S
C975        H980   1.108       .  S
C975        H981   1.110       .  S
C978       C2147   1.508   1_545  S
C978        H982   1.108       .  S
C978        H983   1.110       .  S
C978        H984   1.111       .  S
C985        C986   1.414       .  A
C985        C990   1.394       .  A
C985        H992   1.081       .  S
C986        C987   1.431       .  A
C987        C994   1.507       .  S
C987        C988   1.409       .  A
C988        C989   1.399       .  A
C988        H993   1.084       .  S
C989        C990   1.411       .  A
C990        C991   1.513       .  S
C991        H995   1.111       .  S
C991        H996   1.111       .  S
C991        H997   1.108       .  S
C994        H998   1.110       .  S
C994        H999   1.106       .  S
C994       H1000   1.111       .  S
C1001      C1002   1.408       .  A
C1001      C1006   1.408       .  A
C1001      H1008   1.084       .  S
C1002      C1003   1.415       .  A
C1003      C1010   1.506       .  S
C1003      C1004   1.416       .  A
C1004      C1005   1.411       .  A
C1004      H1009   1.084       .  S
C1005      C1006   1.415       .  A
C1006      C1007   1.508       .  S
C1007      H1011   1.111       .  S
C1007      H1012   1.107       .  S
C1007      H1013   1.110       .  S
C1010      H1014   1.110       .  S
C1010      H1015   1.110       .  S
C1010      H1016   1.111       .  S
C1017      C1018   1.410       .  A
C1017      C1022   1.417       .  A
C1017      H1024   1.084       .  S
C1018      C1019   1.417       .  A
C1019      C1026   1.509       .  S
C1019      C1020   1.409       .  A
C1020      C1021   1.410       .  A
C1020      H1025   1.084       .  S
C1021      C1022   1.419       .  A
C1022      C1023   1.507       .  S
C1023      H1027   1.111       .  S
C1023      H1028   1.108       .  S
C1023      H1029   1.110       .  S
C1026      H1030   1.111       .  S
C1026      H1031   1.109       .  S
C1026      H1032   1.111       .  S
C1033      C1034   1.405       .  A
C1033      C1038   1.393       .  A
C1033      H1040   1.083       .  S
C1034      C1035   1.419       .  A
C1035      C1042   1.500       .  S
C1035      C1036   1.404       .  A
C1036      C1037   1.399       .  A
C1036      H1041   1.085       .  S
C1037      C1038   1.410       .  A
C1038      C1039   1.505       .  S
C1039      H1043   1.111       .  S
C1039      H2220   1.110       .  S
C1039      H2221   1.103       .  S
C1042      H1046   1.109       .  S
C1042      H1047   1.107       .  S
C1042      H1048   1.111       .  S
H1044      C2215   1.110       .  S
H1045      C2215   1.104       .  S
C1049      C1050   1.405       .  A
C1049      C1054   1.400       .  A
C1049      H1056   1.084       .  S
C1050      C1051   1.415       .  A
C1051      C1058   1.511       .  S
C1051      C1052   1.396       .  A
C1052      C1053   1.400       .  A
C1052      H1057   1.084       .  S
C1053      C1054   1.408       .  A
C1054      C1055   1.506       .  S
C1055      H1059   1.111       .  S
C1055      H1060   1.110       .  S
C1055      H1061   1.111       .  S
C1058      H1062   1.103       .  S
C1058      H1063   1.110       .  S
C1058      H1064   1.111       .  S
C1065      C1066   1.402       .  A
C1065      C1070   1.405       .  A
C1065      H1072   1.085       .  S
C1066      C1067   1.408       .  A
C1067      C1074   1.506       .  S
C1067      C1068   1.401       .  A
C1068      C1069   1.409       .  A
C1068      H1073   1.084       .  S
C1069      C1070   1.419       .  A
C1070      C1071   1.506       .  S
C1071      H1075   1.111       .  S
C1071      H1076   1.110       .  S
C1071      H1077   1.106       .  S
C1074      H1078   1.110       .  S
C1074      H1079   1.108       .  S
C1074      H1080   1.111       .  S
C1081      C1082   1.400       .  A
C1081      C1086   1.406       .  A
C1081      H1088   1.085       .  S
C1082      C1083   1.412       .  A
C1083      C1090   1.508       .  S
C1083      C1084   1.398       .  A
C1084      C1085   1.406       .  A
C1084      H1089   1.083       .  S
C1085      C1086   1.418       .  A
C1086      C1087   1.500       .  S
C1087      H1091   1.111       .  S
C1087      H1092   1.102       .  S
C1087      H1093   1.109       .  S
C1090      H1094   1.106       .  S
C1090      H1095   1.110       .  S
C1090      H1096   1.111       .  S
C1097      C1098   1.406       .  A
C1097      C1102   1.403       .  A
C1097      H1104   1.076       .  S
C1098      C1099   1.433       .  A
C1099      C1106   1.513       .  S
C1099      C1100   1.404       .  A
C1100      C1101   1.399       .  A
C1100      H1105   1.084   1_554  S
C1101      C1102   1.423       .  A
C1102      C1103   1.507       .  S
C1103      H1107   1.111       .  S
C1103      H1108   1.102       .  S
C1103      H1109   1.110   1_554  S
C1106      H1110   1.107       .  S
C1106      H1111   1.108       .  S
C1106      H1112   1.111       .  S
C1113      C1114   1.400       .  A
C1113      C1118   1.404       .  A
C1113      H1120   1.085       .  S
C1114      C1115   1.409       .  A
C1115      C1122   1.504       .  S
C1115      C1116   1.397       .  A
C1116      C1117   1.404       .  A
C1116      H1121   1.081       .  S
C1117      C1118   1.422       .  A
C1118      C1119   1.505       .  S
C1119      H1123   1.111       .  S
C1119      H1124   1.103       .  S
C1119      H1125   1.110       .  S
C1122      H1126   1.109       .  S
C1122      H1127   1.109       .  S
C1122      H1128   1.111       .  S
C1129      C1130   1.412       .  A
C1129      C1134   1.401       .  A
C1129      H1136   1.085       .  S
C1130      C1131   1.410       .  A
C1131      C1138   1.509   1_554  S
C1131      C1132   1.401       .  A
C1132      C1133   1.418       .  A
C1132      H1137   1.085       .  S
C1133      C1134   1.411       .  A
C1134      C1135   1.504       .  S
C1135      H1139   1.111       .  S
C1135      H1140   1.110       .  S
C1135      H1141   1.108       .  S
C1138      H1142   1.110       .  S
C1138      H1143   1.109       .  S
C1138      H1144   1.111   1_556  S
C1145      C1146   1.403       .  A
C1145      C1150   1.391       .  A
C1145      H1152   1.084       .  S
C1146      C1147   1.416       .  A
C1147      C1154   1.504       .  S
C1147      C1148   1.402       .  A
C1148      C1149   1.400       .  A
C1148      H1153   1.085       .  S
C1149      C1150   1.409       .  A
C1150      C1151   1.506       .  S
C1151      H1155   1.111       .  S
C1151      H1156   1.103       .  S
C1151      H1157   1.110       .  S
C1154      H1158   1.106       .  S
C1154      H1159   1.109       .  S
C1154      H1160   1.111       .  S
C1161      C1162   1.399       .  A
C1161      C1166   1.399       .  A
C1161      H1168   1.076       .  S
C1162      C1163   1.431       .  A
C1163      C1170   1.514       .  S
C1163      C1164   1.405       .  A
C1164      C1165   1.400       .  A
C1164      H1169   1.084   1_554  S
C1165      C1166   1.421       .  A
C1166      C1167   1.498       .  S
C1167      H1171   1.111       .  S
C1167      H1172   1.108       .  S
C1167      H1173   1.109       .  S
C1170      H1174   1.107       .  S
C1170      H1175   1.106       .  S
C1170      H1176   1.111       .  S
C1177      C1178   1.525       .  S
C1177      C1183   1.522       .  S
C1177      C1181   1.551       .  S
C1177      C2338   1.533       .  S
C1178      H1185   1.086       .  S
C1178      C1179   1.364       .  D
C1179      C1180   1.549       .  S
C1179      C1237   1.476       .  S
C1180      C1184   1.530       .  S
C1180      C1182   1.553       .  S
C1180      H1186   1.111       .  S
C1181      H1187   1.082       .  S
C1181      C1182   1.373       .  D
C1182      C1255   1.487       .  S
C1183      H1188   1.089       .  S
C1183      C1184   1.351       .  D
C1184      C2325   1.461       .  S
C1189      C1190   1.528       .  S
C1189      C1195   1.528       .  S
C1189      C1193   1.545       .  S
C1189      C2309   1.538       .  S
C1190      H1197   1.087       .  S
C1190      C1191   1.364       .  D
C1191      C3544   1.564       .  S
C1191      C1251   1.490       .  S
C1192      C3543   1.564       .  S
C1192      C1196   1.535       .  S
C1192      C3546   1.561       .  S
C1192      H1198   1.110       .  S
C1193      H1199   1.082       .  S
C1193      C1194   1.376       .  D
C1194      C3544   1.561       .  S
C1194      C1319   1.495       .  S
C1195      H1200   1.089       .  S
C1195      C3548   1.349   1_455  D
C1196      C3547   1.349       .  D
C1196      C2290   1.471       .  S
C1201      C1202   1.532       .  S
C1201      C1207   1.517       .  S
C1201      C1205   1.551       .  S
C1201      C2274   1.538       .  S
C1202      H1209   1.083       .  S
C1202      C1203   1.368       .  D
C1203      C1327   1.494       .  S
C1204      C1208   1.536       .  S
C1204      H1210   1.110       .  S
C1205      H1211   1.082       .  S
C1205      C1206   1.373       .  D
C1208      C2258   1.470       .  S
O1213      C1228   1.256       .  A
O1213     Al1221   1.862       .  S
C1214      O1224   1.255       .  A
C1214      O1215   1.269       .  A
C1214      C2306   1.485   1_556  S
O1215     Al1217   1.936       .  S
O1216      C1218   1.248       .  A
O1216     Al1217   1.854       .  S
Al1217     O1225   1.850       .  S
Al1217     O1227   1.933       .  S
Al1217     O1226   1.779       .  S
C1218      O1231   1.266       .  A
C1218      C2277   1.495   1_556  S
O1219      C1229   1.254       .  A
O1219     Al1221   1.873       .  S
O1220      C1233   1.258       .  A
O1220     Al1230   1.877       .  S
Al1221     O1234   1.939       .  S
Al1221     O1231   1.936       .  S
Al1221     O1226   1.775       .  S
O1222      C1229   1.266       .  A
O1222     Al1230   1.931       .  S
O1223      C1232   1.262       .  A
O1223     Al1230   1.917       .  S
O1224     Al1230   1.859       .  S
O1225      C1232   1.248       .  A
O1226     Al1230   1.782       .  S
O1227      C1228   1.267       .  A
C1228      C2210   1.484       .  S
C1229      C2341   1.492   1_556  S
C1232      C2226   1.467       .  S
C1233      O1234   1.268       .  A
C1233      C2245   1.492       .  S
C1235      C2194   1.504       .  S
C1235      N1236   1.368       .  A
C1235      N1240   1.369       .  A
N1236      C1237   1.363       .  A
C1237      N1238   1.354       .  A
N1238      C1239   1.352       .  A
C1239      C1273   1.483       .  S
C1239      N1240   1.363       .  A
C1241      C2197   1.507       .  S
C1241      N1242   1.356       .  A
C1241      N1246   1.363       .  A
C1243      C1285   1.507       .  S
C1243      N1244   1.366       .  A
C1245      N1246   1.368       .  A
C1247      C2178   1.500       .  S
C1247      N1248   1.352       .  A
C1247      N1252   1.363       .  A
N1248      C3601   1.358       .  A
C1249      C1288   1.504       .  S
C1249      N3600   1.358       .  A
C1249      N1250   1.364       .  A
N1250      C1251   1.376       .  A
C1251      N3604   1.369   1_455  A
N1252      C3603   1.369       .  A
C1253      C2181   1.501       .  S
C1253      N1254   1.363       .  A
C1253      N1258   1.370       .  A
N1254      C1255   1.360       .  A
C1255      N1256   1.359       .  A
N1256      C1257   1.362       .  A
C1257      C1264   1.492       .  S
C1257      N1258   1.364       .  A
C1259      C1260   1.543       .  S
C1259      C1265   1.518       .  S
C1259      C1263   1.531       .  S
C1259      C2162   1.537       .  S
C1260      H1267   1.086       .  S
C1260      C1261   1.366       .  D
C1261      C1262   1.562       .  S
C1261      C1325   1.496       .  S
C1262      C1266   1.541       .  S
C1262      C1264   1.569       .  S
C1262      H1268   1.110       .  S
C1263      H1269   1.079       .  S
C1263      C1264   1.370       .  D
C1265      H1270   1.089       .  S
C1265      C1266   1.351       .  D
C1266      C2149   1.475       .  S
C1271      C1272   1.544       .  S
C1271      C1277   1.526       .  S
C1271      C1275   1.525       .  S
C1271      C2130   1.538       .  S
C1272      H1279   1.079       .  S
C1272      C1273   1.374       .  D
C1273      C1274   1.550       .  S
C1274      C1278   1.535       .  S
C1274      C1276   1.563       .  S
C1274      H1280   1.111       .  S
C1275      H1281   1.087       .  S
C1275      C1276   1.365       .  D
C1276      C1321   1.491       .  S
C1277      H1282   1.089       .  S
C1277      C1278   1.353       .  D
C1278      C2117   1.470       .  S
C1283      C1284   1.538       .  S
C1283      C1289   1.512       .  S
C1283      C1287   1.511       .  S
C1283      C2082   1.530       .  S
C1284      H1291   1.081       .  S
C1284      C1285   1.376       .  D
C1285      C1286   1.567       .  S
C1286      C1290   1.550       .  S
C1286      C1288   1.572       .  S
C1286      H1292   1.110       .  S
C1287      H1293   1.086       .  S
C1287      C1288   1.366       .  D
C1289      H1294   1.088       .  S
C1289      C1290   1.356       .  D
C1290      C2098   1.473       .  S
O1295      C1310   1.266       .  A
O1295     Al1303   1.929       .  S
C1296      O1306   1.263       .  A
C1296      O1297   1.257       .  A
C1296      C2133   1.483       .  S
O1297     Al1299   1.880       .  S
O1298      C1300   1.266       .  A
O1298     Al1299   1.937       .  S
Al1299     O1307   1.935       .  S
Al1299     O1309   1.876       .  S
Al1299     O1308   1.778       .  S
C1300      O1313   1.248       .  A
C1300      C2165   1.477       .  S
O1301      C1311   1.269       .  A
O1301     Al1303   1.937       .  S
O1302      C1315   1.266       .  A
O1302     Al1312   1.937       .  S
Al1303     O1316   1.855       .  S
Al1303     O1313   1.842       .  S
Al1303     O1308   1.772       .  S
O1304      C1311   1.253       .  A
O1304     Al1312   1.870       .  S
O1305      C1314   1.253       .  A
O1305     Al1312   1.859       .  S
O1306     Al1312   1.915       .  S
O1307      C1314   1.268       .  A
O1308     Al1312   1.777       .  S
O1309      C1310   1.259       .  A
C1310      C2066   1.492       .  S
C1311      C2101   1.496       .  S
C1314      C2050   1.474       .  S
C1315      O1316   1.252       .  A
C1315      C2037   1.487       .  S
C1317      C2021   1.507       .  S
C1317      N1318   1.369       .  A
C1317      N3674   1.369       .  A
N1318      C3671   1.364       .  A
C1319      N3670   1.364   1_455  A
C1319      N1320   1.357       .  A
N1320      C1321   1.360       .  A
C1321      N1322   1.364       .  A
N1322      C3669   1.369   1_455  A
C1323      C2018   1.507       .  S
C1323      N1324   1.371       .  A
C1323      N1328   1.369       .  A
C1325      N1326   1.361       .  A
N1326      C1327   1.361       .  A
C1329      C1330   1.543       .  S
C1329      C1335   1.519       .  S
C1329      C1333   1.529       .  S
C1329      C2002   1.533       .  S
C1330      H1337   1.085       .  S
C1330      C1331   1.373       .  D
C1331      C1332   1.563       .  S
C1331      C1407   1.487       .  S
C1332      C1336   1.535       .  S
C1332      C1334   1.557       .  S
C1332      H1338   1.110       .  S
C1333      H1339   1.081       .  S
C1333      C1334   1.367       .  D
C1334      C1413   1.488       .  S
C1335      H1340   1.090       .  S
C1335      C1336   1.347       .  D
C1336      C1986   1.474       .  S
C1341      C1342   1.526       .  S
C1341      C1347   1.515       .  S
C1341      C1345   1.517       .  S
C1341      C1957   1.536       .  S
C1342      H1349   1.081       .  S
C1342      C1343   1.375       .  D
C1343      C1344   1.567       .  S
C1343      C3753   1.500       .  S
C1344      C1348   1.552       .  S
C1344      C1346   1.561       .  S
C1344      H1350   1.110       .  S
C1345      H1351   1.087       .  S
C1345      C1346   1.372       .  D
C1346      C1397   1.502       .  S
C1347      H1352   1.088       .  S
C1347      C1348   1.361       .  D
C1348      C1970   1.473       .  S
C1353      C1354   1.519       .  S
C1353      C1359   1.529       .  S
C1353      C1357   1.549       .  S
C1353      C1938   1.533       .  S
C1354      H1361   1.088       .  S
C1354      C1355   1.361       .  D
C1355      C1356   1.568       .  S
C1355      C1421   1.496       .  S
C1356      C1360   1.546       .  S
C1356      C1358   1.573       .  S
C1356      H1362   1.110       .  S
C1357      H1363   1.082       .  S
C1357      C1358   1.376       .  D
C1358      C1389   1.506       .  S
C1359      H1364   1.089       .  S
C1359      C1360   1.350       .  D
C1360      C1922   1.485       .  S
O1365      C1380   1.266       .  A
O1365     Al1373   1.895       .  S
C1366      O1376   1.249       .  A
C1366      O1367   1.259       .  A
C1366      C2005   1.484       .  S
O1367     Al3721   1.921       .  S
O1368      C1370   1.251       .  A
Al1369     O3719   1.921       .  S
Al1369     O1377   1.870       .  S
C1370      O1383   1.258       .  A
C1370      C1941   1.480       .  S
O1371      C3733   1.262   1_455  A
O1371     Al1373   1.879       .  S
O1372      C1385   1.248       .  A
Al1373     O3738   1.906   1_455  S
Al1373     O1383   1.910       .  S
Al1373     O1378   1.785       .  S
O1374      C1381   1.273       .  A
O1375      C1384   1.267       .  A
O1375     Al1382   1.930       .  S
O1376     Al1382   1.836       .  S
O1377      C3736   1.257   1_455  A
O1378     Al2558   1.766   1_455  S
O1379      C1380   1.270       .  A
C1380      C1877   1.489       .  S
C1381      O3723   1.262       .  A
C1381      C1973   1.496       .  S
Al1382     O2554   1.765       .  S
C1384      O3729   1.257       .  A
C1384      C1906   1.489       .  S
C1385      O1386   1.257       .  A
C1385      C1893   1.469       .  S
O1386     Al3725   1.906       .  S
C1387      C1858   1.494       .  S
C1387      N1388   1.364       .  A
N1388      C1389   1.373       .  A
C1389      N1390   1.384       .  A
C1391      C1425   1.507       .  S
C1391      N1392   1.348       .  A
C1393      C1861   1.494       .  S
C1393      N1394   1.364       .  A
N1394      C1395   1.369       .  A
C1395      C1449   1.498       .  S
C1395      N1396   1.380   1_565  A
C1397      N1398   1.352       .  A
C1399      C1842   1.498   1_455  S
C1399      N1400   1.347   1_455  A
C1399      N1404   1.364       .  A
N1400      C1401   1.353       .  A
C1401      C3695   1.500       .  S
C1401      N1402   1.365   1_655  A
N1402      C1403   1.377       .  A
C1403      C1440   1.490       .  S
C1403      N1404   1.368       .  A
C1405      C1845   1.494       .  S
C1405      N1406   1.360       .  A
C1405      N3762   1.343       .  A
N1406      C1407   1.368       .  A
C1407      N1408   1.378       .  A
N1408      C3761   1.365       .  A
C1409      C1428   1.499       .  S
C1409      N3760   1.365       .  A
C1409      N1410   1.351       .  A
N1410      C3757   1.343   1_455  A
C1411      C1826   1.503       .  S
C1411      N1412   1.369       .  A
C1411      N1416   1.370       .  A
N1412      C1413   1.363       .  A
C1413      N1414   1.355       .  A
N1414      C1415   1.354       .  A
C1415      C1452   1.490       .  S
C1415      N1416   1.364       .  A
C1417      C1829   1.502       .  S
C1417      N1418   1.368       .  A
C1417      N1422   1.369       .  A
N1418      C1419   1.362       .  A
C1419      C1437   1.491       .  S
C1419      N1420   1.358       .  A
N1420      C1421   1.360       .  A
C1421      N1422   1.364       .  A
C1423      C1424   1.517       .  S
C1423      C1429   1.504       .  S
C1423      C1427   1.521       .  S
C1423      C2034   1.536       .  S
C1424      H1431   1.080       .  S
C1424      C1425   1.380       .  D
C1425      C1426   1.566       .  S
C1426      C1430   1.548       .  S
C1426      C1428   1.569       .  S
C1426      H1432   1.110       .  S
C1427      H1433   1.083       .  S
C1427      C1428   1.377       .  D
C1429      H1434   1.090       .  S
C1429      C1430   1.352       .  D
C1430      C1810   1.470       .  S
C1435      C1436   1.541       .  S
C1435      C1441   1.516       .  S
C1435      C1439   1.527       .  S
C1435      C1794   1.526       .  S
C1436      H1443   1.084       .  S
C1436      C1437   1.372       .  D
C1437      C1438   1.564       .  S
C1438      C1442   1.542       .  S
C1438      C1440   1.566       .  S
C1438      H1444   1.110       .  S
C1439      H1445   1.087       .  S
C1439      C1440   1.363       .  D
C1441      H1446   1.088       .  S
C1441      C1442   1.350       .  D
C1442      C2053   1.475       .  S
C1447      C1448   1.548       .  S
C1447      C1453   1.518       .  S
C1447      C1451   1.525       .  S
C1447      C1781   1.533       .  S
C1448      H1455   1.083       .  S
C1448      C1449   1.373       .  D
C1449      C1450   1.570       .  S
C1450      C1454   1.541       .  S
C1450      C1452   1.561       .  S
C1450      H1456   1.110       .  S
C1451      H1457   1.084       .  S
C1451      C1452   1.365       .  D
C1453      H1458   1.090       .  S
C1453      C1454   1.347       .  D
C1454      C2069   1.476       .  S
O1459      C1474   1.265       .  A
O1459     Al1467   1.927       .  S
C1460      O1470   1.267       .  A
C1460      O1461   1.252   1_565  A
C1460      C1778   1.489       .  S
O1462      C1464   1.266       .  A
O1462     Al3815   1.926   1_455  S
Al1463     O3814   1.926       .  S
Al1463     O3825   1.858       .  S
Al1463     O2648   1.776       .  S
C1464      O1477   1.257       .  A
C1464      C1797   1.488       .  S
O1465      C1475   1.267       .  A
O1466      C1479   1.265       .  A
O1466     Al3828   1.925   1_455  S
Al1467     O1477   1.875       .  S
O1468      C1475   1.260   1_655  A
O1468     Al3828   1.898       .  S
O1469      C1478   1.260       .  A
O1469     Al1476   1.888       .  S
O1470     Al1476   1.925       .  S
O1471      C1478   1.266       .  A
O1472     Al2639   1.776   1_465  S
O1472     Al3828   1.774   1_455  S
O1473      C1474   1.255       .  A
O1473     Al3815   1.857   1_455  S
C1474      C2114   1.484       .  S
C1475      C1813   1.496       .  S
Al1476     O3818   1.925       .  S
Al1476     O3820   1.898       .  S
Al1476     O3824   1.774       .  S
C1478      C2146   1.497       .  S
C1479      O1480   1.256       .  A
C1479      C2085   1.473       .  S
C1481      C1482   1.534       .  S
C1481      C1487   1.518       .  S
C1481      C1485   1.539       .  S
C1481      C1765   1.539       .  S
C1482      H1489   1.081       .  S
C1482      C1483   1.368       .  D
C1483      C1484   1.563       .  S
C1483      C1561   1.498       .  S
C1484      C1488   1.539       .  S
C1484      C1486   1.570       .  S
C1484      H1490   1.110       .  S
C1485      H1491   1.085       .  S
C1485      C1486   1.373       .  D
C1486      C1549   1.497       .  S
C1487      H1492   1.089       .  S
C1487      C1488   1.350       .  D
C1488      C1909   1.473       .  S
C1493      C1494   1.538       .  S
C1493      C1499   1.518       .  S
C1493      C1497   1.539       .  S
C1493      C1746   1.540       .  S
C1494      H1501   1.081       .  S
C1494      C1495   1.372       .  D
C1495      C1496   1.561       .  S
C1495      C1567   1.492       .  S
C1496      C1500   1.534       .  S
C1496      C1498   1.563       .  S
C1496      H1502   1.110       .  S
C1497      H1503   1.085       .  S
C1497      C1498   1.368       .  D
C1498      C1555   1.495       .  S
C1499      H1504   1.089       .  S
C1499      C1500   1.350       .  D
C1500      C1874   1.466       .  S
C1505      C1506   1.526       .  S
C1505      C1511   1.507       .  S
C1505      C1509   1.528       .  S
C1505      C1890   1.523       .  S
C1506      H1513   1.085       .  S
C1506      C1507   1.369       .  D
C1507      C1508   1.561       .  S
C1507      C1573   1.488       .  S
C1508      C1512   1.543       .  S
C1508      C1510   1.562       .  S
C1508      H1514   1.110       .  S
C1509      H1515   1.084       .  S
C1509      C1510   1.372       .  D
C1510      C1543   1.493       .  S
C1511      H1516   1.089       .  S
C1511      C1512   1.356       .  D
C1512      C1730   1.469       .  S
O1517      C1532   1.261       .  A
O1517     Al1525   1.909       .  S
C1518      O1528   1.260       .  A
C1518      O1519   1.256       .  A
C1518      C1749   1.490       .  S
O1519     Al1521   1.879       .  S
O1520      C1522   1.268       .  A
O1520     Al1521   1.946       .  S
Al1521     O1529   1.936       .  S
Al1521     O1531   1.881       .  S
Al1521     O1530   1.774       .  S
C1522      O1535   1.255       .  A
C1522      C1762   1.493       .  S
O1523      C1533   1.267       .  A
O1523     Al1525   1.930       .  S
O1524      C1537   1.264       .  A
O1524     Al1534   1.925       .  S
Al1525     O1538   1.879       .  S
Al1525     O1535   1.856       .  S
Al1525     O1530   1.774       .  S
O1526      C1533   1.259       .  A
O1526     Al1534   1.886       .  S
O1527      C1536   1.259       .  A
O1527     Al1534   1.882       .  S
O1528     Al1534   1.920       .  S
O1529      C1536   1.271       .  A
O1530     Al1534   1.780       .  S
O1531      C1532   1.258       .  A
C1532      C1989   1.489       .  S
C1533      C1733   1.496       .  S
C1536      C1925   1.487       .  S
C1537      O1538   1.255       .  A
C1537      C1954   1.484       .  S
C1539      C1714   1.509       .  S
C1539      N1540   1.366       .  A
C1539      N1544   1.348   1_565  A
C1541      C1589   1.496       .  S
C1541      N1542   1.373       .  A
N1542      C1543   1.363       .  A
C1545      C1717   1.509       .  S
C1545      N1546   1.364       .  A
C1545      N1550   1.375       .  A
N1546      C1547   1.359       .  A
C1547      C1580   1.482       .  S
C1547      N1548   1.358       .  A
N1548      C1549   1.359       .  A
C1549      N1550   1.367       .  A
C1551      C1701   1.529       .  S
C1551      N1552   1.375       .  A
C1551      N1556   1.374   1_565  A
C1553      C1592   1.493       .  S
C1553      N1554   1.356       .  A
N1554      C1555   1.356       .  A
C1557      C1698   1.529       .  S
C1557      N1558   1.375       .  A
C1557      N1562   1.372   1_455  A
N1558      C3911   1.370   1_455  A
C1559      C3953   1.500       .  S
C1559      N3910   1.370       .  A
C1559      N1560   1.359       .  A
N1560      C1561   1.357       .  A
C1561      N3914   1.362       .  A
N1562      C3913   1.361       .  A
C1563      C1685   1.498       .  S
C1563      N1564   1.362       .  A
C1563      N1568   1.370       .  A
N1564      C1565   1.357       .  A
C1565      C1577   1.482       .  S
C1565      N1566   1.360       .  A
N1566      C1567   1.360       .  A
C1567      N1568   1.365       .  A
C1569      C1682   1.500       .  S
C1569      N1570   1.367       .  A
C1569      N1574   1.352   1_455  A
N1570      C1571   1.370   1_455  A
C1571      C1604   1.488       .  S
C1571      N3924   1.368       .  A
N1572      C3923   1.368       .  A
N1572      C1573   1.358       .  A
C1573      N3926   1.355       .  A
N1574      C3925   1.356       .  A
C1575      C1576   1.537       .  S
C1575      C1581   1.533       .  S
C1575      C1579   1.530       .  S
C1575      C1666   1.532       .  S
C1576      H1583   1.082       .  S
C1576      C1577   1.369       .  D
C1577      C1578   1.557       .  S
C1578      C1582   1.537       .  S
C1578      C1580   1.554       .  S
C1578      H1584   1.111       .  S
C1579      H1585   1.087       .  S
C1579      C1580   1.366       .  D
C1581      H1586   1.088       .  S
C1581      C1582   1.350       .  D
C1582      C2242   1.473       .  S
C1587      C1588   1.549       .  S
C1587      C1593   1.527       .  S
C1587      C1591   1.531       .  S
C1587      C1650   1.542       .  S
C1588      H1595   1.079       .  S
C1588      C1589   1.376       .  D
C1590      C1594   1.532       .  S
C1590      H1596   1.110       .  S
C1591      H1597   1.087       .  S
C1591      C1592   1.366       .  D
C1593      H1598   1.089       .  S
C1594      C2213   1.466       .  S
C1599      C1600   1.548       .  S
C1599      C3957   1.521       .  S
C1599      C1603   1.529       .  S
C1599      C1634   1.542       .  S
C1600      H1607   1.081       .  S
C1600      C3953   1.368       .  D
C1601      C1602   1.557   1_655  S
C1601      C3952   1.368       .  D
C1601      C3911   1.500       .  S
C1602      C1606   1.527       .  S
C1602      C1604   1.566   1_455  S
C1602      H1608   1.110       .  S
C1603      H1609   1.083       .  S
C1603      C3956   1.372       .  D
C1604      C3955   1.371       .  D
C1605      C3951   1.521       .  S
C1605      H1610   1.089       .  S
C1605      C1606   1.351   1_655  D
C1606      C2229   1.461       .  S
O1611      C1626   1.262   1_556  A
O1611     Al1619   1.919       .  S
C1612      O1622   1.264       .  A
C1612      O1613   1.256       .  A
C1612      C1653   1.492       .  S
O1613     Al1615   1.879       .  S
O1614      C1616   1.271       .  A
O1614     Al1615   1.941       .  S
Al1615     O1623   1.939       .  S
Al1615     O1625   1.888       .  S
Al1615     O1624   1.773       .  S
C1616      O1629   1.253       .  A
C1616      C1637   1.494       .  S
O1617      C1627   1.262       .  A
O1617     Al1619   1.915       .  S
O1618      C1631   1.268   1_556  A
O1618     Al1628   1.936       .  S
Al1619     O1632   1.858       .  S
Al1619     O1629   1.859       .  S
Al1619     O1624   1.773       .  S
O1620      C1627   1.255       .  A
O1620     Al1628   1.877       .  S
O1621      C1630   1.257   1_556  A
O1621     Al1628   1.865       .  S
O1622     Al1628   1.923       .  S
O1623      C1630   1.268   1_556  A
O1624     Al1628   1.775       .  S
O1625      C1626   1.259   1_556  A
C1626      C2293   1.491       .  S
C1627      C1669   1.479       .  S
C1630      C2261   1.491       .  S
C1631      O1632   1.256   1_554  A
C1631      C2322   1.476       .  S
C1633      C1634   1.407       .  A
C1633      C1638   1.398       .  A
C1633      H1640   1.072       .  S
C1634      C1635   1.430       .  A
C1635      C1642   1.511       .  S
C1635      C1636   1.408       .  A
C1636      C1637   1.403       .  A
C1636      H1641   1.084       .  S
C1637      C1638   1.421       .  A
C1638      C1639   1.510       .  S
C1639      H1643   1.111       .  S
C1639      H1644   1.110       .  S
C1639      H1645   1.101       .  S
C1642      H3998   1.108       .  S
C1642      H1647   1.107       .  S
C1642      H1648   1.111       .  S
H1646      C3994   1.108       .  S
C1649      C1650   1.416       .  A
C1649      C1654   1.402       .  A
C1649      H1656   1.084       .  S
C1650      C1651   1.414       .  A
C1651      C1658   1.502       .  S
C1651      C1652   1.406       .  A
C1652      C1653   1.411       .  A
C1652      H1657   1.083       .  S
C1653      C1654   1.413       .  A
C1654      C1655   1.508       .  S
C1655      H1659   1.111       .  S
C1655      H1660   1.110       .  S
C1655      H1661   1.110       .  S
C1658      H1662   1.109       .  S
C1658      H1663   1.110       .  S
C1658      H1664   1.111       .  S
C1665      C1666   1.411       .  A
C1665      C1670   1.397       .  A
C1665      H1672   1.085       .  S
C1666      C1667   1.414       .  A
C1667      C1674   1.506       .  S
C1667      C1668   1.402       .  A
C1668      C1669   1.409       .  A
C1668      H1673   1.085       .  S
C1669      C1670   1.414       .  A
C1670      C1671   1.509       .  S
C1671      H1675   1.111       .  S
C1671      H1676   1.109       .  S
C1671      H1677   1.111       .  S
C1674      H1678   1.109       .  S
C1674      H1679   1.110       .  S
C1674      H1680   1.111       .  S
C1681      C1682   1.404       .  A
C1681      C1686   1.414       .  A
C1681      H1688   1.084       .  S
C1682      C1683   1.424       .  A
C1683      C1690   1.510       .  S
C1683      C1684   1.408       .  A
C1684      C1685   1.402       .  A
C1684      H1689   1.084       .  S
C1685      C1686   1.422       .  A
C1686      C1687   1.508       .  S
C1687      H1691   1.111       .  S
C1687      H1692   1.110       .  S
C1687      H1693   1.107       .  S
C1690      H1694   1.109       .  S
C1690      H1695   1.110       .  S
C1690      H1696   1.111       .  S
C1697      C1698   1.412       .  A
C1697      C1702   1.414       .  A
C1697      H1704   1.082       .  S
C1698      C1699   1.426       .  A
C1699      C1706   1.507       .  S
C1699      C1700   1.421       .  A
C1700      C1701   1.414       .  A
C1700      H1705   1.083       .  S
C1701      C1702   1.426       .  A
C1702      C1703   1.507       .  S
C1703      H1707   1.111       .  S
C1703      H1708   1.107       .  S
C1703      H1709   1.110       .  S
C1706      H1710   1.110       .  S
C1706      H1711   1.108       .  S
C1706      H1712   1.111       .  S
C1713      C1714   1.406       .  A
C1713      C1718   1.418       .  A
C1713      H1720   1.084       .  S
C1714      C1715   1.427       .  A
C1715      C1722   1.511       .  S
C1715      C1716   1.408       .  A
C1716      C1717   1.401       .  A
C1716      H1721   1.084       .  S
C1717      C1718   1.426       .  A
C1718      C1719   1.507       .  S
C1719      H1723   1.111       .  S
C1719      H1724   1.110       .  S
C1719      H1725   1.110       .  S
C1722      H1726   1.110       .  S
C1722      H1727   1.109       .  S
C1722      H1728   1.111       .  S
C1729      C1730   1.403       .  A
C1729      C1734   1.406       .  A
C1729      H1736   1.085       .  S
C1730      C1731   1.406       .  A
C1731      C1738   1.507       .  S
C1731      C1732   1.402       .  A
C1732      C1733   1.411       .  A
C1732      H1737   1.078       .  S
C1733      C1734   1.422       .  A
C1734      C1735   1.506       .  S
C1735      H1739   1.111       .  S
C1735      H1740   1.104       .  S
C1735      H1741   1.110       .  S
C1738      H1742   1.110       .  S
C1738      H1743   1.110       .  S
C1738      H1744   1.111       .  S
C1745      C1746   1.417       .  A
C1745      C1750   1.405       .  A
C1745      H1752   1.078       .  S
C1746      C1747   1.429       .  A
C1747      C1754   1.512       .  S
C1747      C1748   1.402       .  A
C1748      C1749   1.400       .  A
C1748      H1753   1.080       .  S
C1749      C1750   1.413       .  A
C1750      C1751   1.510       .  S
C1751      H1755   1.111       .  S
C1751      H1756   1.104       .  S
C1751      H1757   1.110       .  S
C1754      H1758   1.107       .  S
C1754      H1759   1.109       .  S
C1754      H1760   1.111       .  S
C1761      C1762   1.399       .  A
C1761      C1766   1.397       .  A
C1761      H1768   1.082       .  S
C1762      C1763   1.413       .  A
C1763      C1770   1.504       .  S
C1763      C1764   1.410       .  A
C1764      C1765   1.415       .  A
C1764      H1769   1.079       .  S
C1765      C1766   1.431       .  A
C1766      C1767   1.515       .  S
C1767      H1771   1.111       .  S
C1767      H1772   1.107       .  S
C1767      H1773   1.108       .  S
C1770      H1774   1.102       .  S
C1770      H1775   1.110       .  S
C1770      H1776   1.111       .  S
C1777      C1778   1.398       .  A
C1777      C1782   1.399       .  A
C1777      H1784   1.084       .  S
C1778      C1779   1.421       .  A
C1779      C1780   1.402       .  A
C1780      C1781   1.405       .  A
C1780      H1785   1.077   1_565  S
C1781      C1782   1.433       .  A
C1782      C1783   1.515       .  S
C1783      H1787   1.111       .  S
C1783      H1788   1.107       .  S
C1783      H1789   1.107       .  S
C1786      H1791   1.103       .  S
C1786      H1792   1.111       .  S
C1793      C1794   1.393       .  A
C1793      C1798   1.394       .  A
C1793      H1800   1.080       .  S
C1794      C1795   1.431       .  A
C1795      C1802   1.511       .  S
C1795      C1796   1.401       .  A
C1796      C1797   1.399       .  A
C1796      H1801   1.084       .  S
C1797      C1798   1.420       .  A
C1798      C1799   1.491       .  S
C1799      H1803   1.111       .  S
C1799      H1804   1.107       .  S
C1799      H1805   1.108       .  S
C1802      H1806   1.110       .  S
C1802      H1807   1.104       .  S
C1802      H1808   1.110   1_455  S
C1809      C1810   1.400       .  A
C1809      C1814   1.410       .  A
C1809      H1816   1.084       .  S
C1810      C1811   1.410       .  A
C1811      C1818   1.507       .  S
C1811      C1812   1.394       .  A
C1812      C1813   1.406       .  A
C1812      H1817   1.084       .  S
C1813      C1814   1.424       .  A
C1814      C4167   1.502   1_455  S
C1815      C4166   1.502       .  S
C1815      H1819   1.111       .  S
C1815      H1820   1.110       .  S
C1815      H1821   1.105       .  S
C1818      H1822   1.110       .  S
C1818      H1823   1.110       .  S
C1825      C1826   1.406       .  A
C1825      C1830   1.414       .  A
C1825      H1832   1.084       .  S
C1826      C1827   1.419       .  A
C1827      C1834   1.507       .  S
C1827      C1828   1.415       .  A
C1828      C1829   1.407       .  A
C1828      H1833   1.084       .  S
C1829      C1830   1.418       .  A
C1830      C1831   1.507       .  S
C1831      H1835   1.111       .  S
C1831      H1836   1.110       .  S
C1831      H1837   1.107       .  S
C1834      H1838   1.107       .  S
C1834      H1839   1.110       .  S
C1834      H1840   1.111       .  S
C1841      C4194   1.415       .  A
C1841      C1846   1.408       .  A
C1841      H1848   1.083       .  S
C1842      C4193   1.415       .  A
C1842      C1843   1.412   1_655  A
C1843      C1850   1.506       .  S
C1843      C1844   1.407       .  A
C1844      C4197   1.413   1_455  A
C1844      H1849   1.084       .  S
C1845      C4196   1.413       .  A
C1845      C1846   1.412       .  A
C1846      C1847   1.508       .  S
C1847      H1851   1.111       .  S
C1847      H1852   1.110       .  S
C1847      H1853   1.110       .  S
C1850      H1854   1.110       .  S
C1850      H1855   1.109       .  S
C1850      H1856   1.111       .  S
C1857      C1862   1.407       .  A
C1857      H1864   1.083       .  S
C1858      C1859   1.410       .  A
C1859      C1866   1.502       .  S
C1859      C1860   1.409       .  A
C1860      H1865   1.084       .  S
C1861      C1862   1.411       .  A
C1862      C1863   1.506       .  S
C1863      H1867   1.111       .  S
C1863      H1868   1.109       .  S
C1863      H1869   1.110       .  S
C1866      H1870   1.111       .  S
C1866      H1871   1.108       .  S
C1866      H1872   1.111       .  S
C1873      C1874   1.394       .  A
C1873      C1878   1.399       .  A
C1873      H1880   1.081       .  S
C1874      C1875   1.409       .  A
C1875      C1882   1.507       .  S
C1875      C1876   1.404       .  A
C1876      C1877   1.409       .  A
C1876      H1881   1.084       .  S
C1877      C1878   1.423       .  A
C1878      C1879   1.506       .  S
C1879      H1883   1.110       .  S
C1879      H1884   1.109       .  S
C1879      H1885   1.102       .  S
C1882      H1886   1.110       .  S
C1882      H1887   1.110       .  S
C1882      H1888   1.111       .  S
C1889      C1890   1.410       .  A
C1889      C1894   1.397       .  A
C1889      H1896   1.081       .  S
C1890      C1891   1.426       .  A
C1891      C1898   1.511       .  S
C1891      C1892   1.396       .  A
C1892      C1893   1.399       .  A
C1892      H1897   1.085       .  S
C1893      C1894   1.411       .  A
C1895      H1899   1.111       .  S
C1895      H1900   1.104       .  S
C1895      H1901   1.111   1_565  S
C1898      H1902   1.110       .  S
C1898      H1903   1.105       .  S
C1898      H1904   1.111       .  S
C1905      C1906   1.404       .  A
C1905      C1910   1.396       .  A
C1905      H1912   1.084       .  S
C1906      C1907   1.419       .  A
C1907      C1914   1.503       .  S
C1907      C1908   1.408       .  A
C1908      C1909   1.401       .  A
C1908      H1913   1.085       .  S
C1909      C1910   1.413       .  A
C1910      C1911   1.504       .  S
C1911      H1915   1.111       .  S
C1911      H1916   1.110       .  S
C1911      H1917   1.104       .  S
C1914      H1918   1.109       .  S
C1914      H1919   1.110       .  S
C1914      H1920   1.111       .  S
C1921      C1922   1.404       .  A
C1921      C1926   1.405       .  A
C1921      H1928   1.083       .  S
C1922      C1923   1.412       .  A
C1923      C1930   1.499       .  S
C1923      C1924   1.403       .  A
C1924      C1925   1.404       .  A
C1924      H1929   1.085       .  S
C1925      C1926   1.418       .  A
C1926      C1927   1.508       .  S
C1927      H1931   1.111       .  S
C1927      H1932   1.110       .  S
C1927      H1933   1.110       .  S
C1930      H1934   1.111       .  S
C1930      H1935   1.101       .  S
C1930      H1936   1.110       .  S
C1937      C1938   1.416       .  A
C1937      C1942   1.399       .  A
C1937      H1944   1.084       .  S
C1938      C1939   1.410       .  A
C1939      C1946   1.504       .  S
C1939      C1940   1.401       .  A
C1940      C1941   1.410       .  A
C1940      H1945   1.082       .  S
C1941      C1942   1.409       .  A
C1942      C1943   1.508       .  S
C1943      H1947   1.111       .  S
C1943      H1948   1.110       .  S
C1943      H1949   1.110       .  S
C1946      H1950   1.110       .  S
C1946      H1951   1.108       .  S
C1953      C1954   1.399       .  A
C1953      C1958   1.402       .  A
C1953      H1960   1.085       .  S
C1954      C1955   1.417       .  A
C1955      C1962   1.508       .  S
C1955      C1956   1.401       .  A
C1956      C1957   1.408       .  A
C1956      H1961   1.078       .  S
C1957      C1958   1.428       .  A
C1958      C1959   1.512       .  S
C1959      H1963   1.111       .  S
C1959      H1964   1.110       .  S
C1959      H1965   1.103       .  S
C1962      H1966   1.103       .  S
C1962      H1967   1.111       .  S
C1962      H1968   1.111       .  S
C1969      C1970   1.404       .  A
C1969      C1974   1.406       .  A
C1969      H1976   1.085       .  S
C1970      C1971   1.406       .  A
C1971      C1978   1.505       .  S
C1971      C1972   1.402       .  A
C1972      C1973   1.413       .  A
C1972      H1977   1.084       .  S
C1973      C1974   1.421       .  A
C1974      C1975   1.507       .  S
C1975      H1979   1.111       .  S
C1975      H4333   1.107       .  S
C1978      H1982   1.111       .  S
C1978      H1983   1.111       .  S
C1978      H1984   1.110       .  S
H1981      C4327   1.107       .  S
C1985      C1986   1.404       .  A
C1985      C1990   1.402       .  A
C1985      H1992   1.085       .  S
C1986      C1987   1.406       .  A
C1987      C1994   1.503       .  S
C1987      C1988   1.402       .  A
C1988      C1989   1.411       .  A
C1988      H1993   1.083       .  S
C1989      C1990   1.422       .  A
C1990      C1991   1.512       .  S
C1991      H1995   1.111       .  S
C1991      H1996   1.106       .  S
C1991      H1997   1.110       .  S
C1994      H1998   1.108       .  S
C1994      H1999   1.110       .  S
C1994      H2000   1.111       .  S
C2001      C2002   1.417       .  A
C2001      C2006   1.408       .  A
C2001      H2008   1.079       .  S
C2002      C2003   1.431       .  A
C2003      C2010   1.514       .  S
C2003      C2004   1.393       .  A
C2004      C2005   1.399       .  A
C2004      H2009   1.084       .  S
C2005      C2006   1.413       .  A
C2006      C4359   1.509       .  S
C2007      C4358   1.508   1_455  S
C2007      H2011   1.111       .  S
C2007      H2012   1.110       .  S
C2007      H2013   1.104       .  S
C2010      H2014   1.109       .  S
C2010      H2015   1.107       .  S
C2010      H2016   1.111       .  S
C2017      C2018   1.407       .  A
C2017      C2022   1.413       .  A
C2017      H2024   1.084       .  S
C2018      C2019   1.421       .  A
C2019      C2026   1.507       .  S
C2019      C2020   1.416       .  A
C2020      C2021   1.408       .  A
C2020      H2025   1.084       .  S
C2021      C2022   1.419       .  A
C2022      C2023   1.507       .  S
C2023      H2027   1.111       .  S
C2023      H2028   1.102       .  S
C2023      H2029   1.110       .  S
C2026      H2030   1.110       .  S
C2026      H2031   1.110       .  S
C2026      H2032   1.111       .  S
C2033      C2034   1.412       .  A
C2033      C2038   1.399       .  A
C2033      H2040   1.078       .  S
C2034      C2035   1.430       .  A
C2035      C2042   1.510       .  S
C2035      C2036   1.401       .  A
C2036      C2037   1.401       .  A
C2036      H2041   1.083       .  S
C2037      C2038   1.411       .  A
C2038      C2039   1.499       .  S
C2039      H2043   1.111       .  S
C2039      H2044   1.100       .  S
C2039      H2045   1.109       .  S
C2042      H2046   1.106       .  S
C2042      H2047   1.107       .  S
C2042      H2048   1.111       .  S
C2049      C2050   1.404       .  A
C2049      C2054   1.404       .  A
C2049      H2056   1.084       .  S
C2050      C2051   1.415       .  A
C2051      C2058   1.513       .  S
C2051      C2052   1.400       .  A
C2052      C2053   1.406       .  A
C2052      H2057   1.085       .  S
C2053      C2054   1.411       .  A
C2054      C2055   1.503       .  S
C2055      H2059   1.111       .  S
C2055      H2060   1.109       .  S
C2055      H2061   1.108       .  S
C2058      H2062   1.110       .  S
C2058      H2063   1.102       .  S
C2058      H2064   1.111       .  S
C2065      C2066   1.409       .  A
C2065      C2070   1.401       .  A
C2065      H2072   1.083       .  S
C2066      C2067   1.420       .  A
C2067      C2074   1.507       .  S
C2067      C2068   1.405       .  A
C2068      C2069   1.404       .  A
C2068      H2073   1.084       .  S
C2069      C2070   1.409       .  A
C2070      C2071   1.504       .  S
C2071      H2075   1.111       .  S
C2071      H2076   1.109       .  S
C2071      H2077   1.109       .  S
C2074      H2078   1.108       .  S
C2074      H2079   1.110       .  S
C2074      H2080   1.111       .  S
C2081      C2082   1.403       .  A
C2081      C2086   1.395       .  A
C2081      H2088   1.077       .  S
C2082      C2083   1.432       .  A
C2083      C2090   1.516       .  S
C2083      C2084   1.403       .  A
C2084      C2085   1.397       .  A
C2084      H2089   1.084       .  S
C2085      C2086   1.414       .  A
C2086      C2087   1.506   1_565  S
C2087      H2091   1.111       .  S
C2087      H2092   1.106       .  S
C2090      H2094   1.104       .  S
C2090      H2095   1.108       .  S
C2090      H4448   1.111       .  S
H2096      C4442   1.111       .  S
C2097      C2098   1.398       .  A
C2097      C2102   1.406       .  A
C2097      H2104   1.085       .  S
C2098      C2099   1.412       .  A
C2099      C2106   1.505       .  S
C2099      C2100   1.403       .  A
C2100      C2101   1.406       .  A
C2100      H2105   1.083       .  S
C2101      C2102   1.427       .  A
C2102      C2103   1.508       .  S
C2103      H2107   1.111       .  S
C2103      H2108   1.110       .  S
C2103      H2109   1.108       .  S
C2106      H2110   1.110       .  S
C2106      H2111   1.110       .  S
C2106      H2112   1.110       .  S
C2113      C2114   1.410       .  A
C2113      C2118   1.395       .  A
C2113      H2120   1.081       .  S
C2114      C2115   1.417       .  A
C2115      C2122   1.508       .  S
C2115      C2116   1.403       .  A
C2116      C2117   1.406       .  A
C2116      H2121   1.085       .  S
C2117      C2118   1.401       .  A
C2118      C2119   1.501       .  S
C2119      H4475   1.111   1_455  S
C2119      H2124   1.106       .  S
C2119      H2125   1.109       .  S
C2122      H2126   1.109       .  S
C2122      H2127   1.110       .  S
C2122      H2128   1.111       .  S
H2123      C4471   1.111       .  S
C2129      C2130   1.414       .  A
C2129      C2134   1.398       .  A
C2129      H2136   1.084       .  S
C2130      C2131   1.417       .  A
C2131      C2138   1.504       .  S
C2131      C2132   1.405       .  A
C2132      C2133   1.409       .  A
C2132      H2137   1.084       .  S
C2133      C2134   1.412       .  A
C2134      C2135   1.509       .  S
C2135      H2139   1.111       .  S
C2135      H2140   1.109       .  S
C2135      H2141   1.111       .  S
C2138      H2142   1.109       .  S
C2138      H2143   1.110       .  S
C2138      H2144   1.112       .  S
C2145      C2146   1.411       .  A
C2145      C2150   1.402       .  A
C2145      H2152   1.083       .  S
C2146      C2147   1.422       .  A
C2147      C2148   1.408       .  A
C2148      C2149   1.403       .  A
C2148      H2153   1.085       .  S
C2149      C2150   1.407       .  A
C2150      C2151   1.506       .  S
C2151      H2155   1.111       .  S
C2151      H2156   1.107       .  S
C2151      H2157   1.110       .  S
C2154      H2158   1.108       .  S
C2154      H2159   1.110       .  S
C2154      H2160   1.111       .  S
C2161      C2162   1.413       .  A
C2161      C2166   1.393       .  A
C2161      H2168   1.081       .  S
C2162      C2163   1.431       .  A
C2163      C2170   1.507       .  S
C2163      C2164   1.408       .  A
C2164      C2165   1.399       .  A
C2164      H2169   1.084       .  S
C2165      C2166   1.411       .  A
C2166      C2167   1.513       .  S
C2167      H2171   1.111       .  S
C2167      H2172   1.111       .  S
C2167      H2173   1.107       .  S
C2170      H2174   1.110       .  S
C2170      H2175   1.106       .  S
C2170      H2176   1.111       .  S
C2177      C2178   1.409       .  A
C2177      C2182   1.408       .  A
C2177      H2184   1.084       .  S
C2178      C2179   1.415       .  A
C2179      C2186   1.506       .  S
C2179      C2180   1.416       .  A
C2180      C2181   1.412       .  A
C2180      H2185   1.084       .  S
C2181      C2182   1.416       .  A
C2182      C2183   1.508       .  S
C2183      H2187   1.111       .  S
C2183      H2188   1.106       .  S
C2183      H2189   1.110       .  S
C2186      H2190   1.110       .  S
C2186      H2191   1.110       .  S
C2186      H2192   1.111       .  S
C2193      C2194   1.410       .  A
C2193      C2198   1.417       .  A
C2193      H2200   1.084       .  S
C2194      C2195   1.417       .  A
C2195      C2202   1.509       .  S
C2195      C2196   1.409       .  A
C2196      C2197   1.410       .  A
C2196      H2201   1.084       .  S
C2197      C2198   1.419       .  A
C2198      C2199   1.507       .  S
C2199      H2203   1.111       .  S
C2199      H2204   1.107       .  S
C2199      H2205   1.110       .  S
C2202      H2206   1.111       .  S
C2202      H2207   1.109       .  S
C2202      H2208   1.111       .  S
C2209      C2210   1.404       .  A
C2209      C2214   1.393       .  A
C2209      H2216   1.084       .  S
C2210      C2211   1.418       .  A
C2211      C2218   1.501       .  S
C2211      C2212   1.405       .  A
C2212      C2213   1.399       .  A
C2212      H2217   1.085       .  S
C2213      C2214   1.411       .  A
C2214      C2215   1.506       .  S
C2215      H2219   1.111       .  S
C2218      H2222   1.109       .  S
C2218      H2223   1.109       .  S
C2218      H2224   1.111       .  S
C2225      C2226   1.404       .  A
C2225      C2230   1.399       .  A
C2225      H2232   1.085       .  S
C2226      C2227   1.416       .  A
C2227      C2234   1.511       .  S
C2227      C2228   1.396       .  A
C2228      C2229   1.401       .  A
C2228      H2233   1.085       .  S
C2229      C2230   1.407       .  A
C2230      C2231   1.506       .  S
C2231      H2235   1.111       .  S
C2231      H2236   1.110       .  S
C2231      H2237   1.110       .  S
C2234      H2238   1.104       .  S
C2234      H2239   1.110       .  S
C2234      H2240   1.111       .  S
C2241      C2242   1.401       .  A
C2241      C2246   1.406       .  A
C2241      H2248   1.085       .  S
C2242      C2243   1.409       .  A
C2243      C2250   1.506       .  S
C2243      C2244   1.401       .  A
C2244      C2245   1.409       .  A
C2244      H2249   1.084       .  S
C2245      C2246   1.420       .  A
C2246      C2247   1.506       .  S
C2247      H2251   1.111       .  S
C2247      H2252   1.109       .  S
C2247      H2253   1.107       .  S
C2250      H2254   1.110       .  S
C2250      H2255   1.106       .  S
C2250      H2256   1.111       .  S
C2257      C2258   1.402       .  A
C2257      C2262   1.406       .  A
C2257      H2264   1.085       .  S
C2258      C2259   1.412       .  A
C2259      C2266   1.508       .  S
C2259      C2260   1.398       .  A
C2260      C2261   1.406       .  A
C2260      H2265   1.083       .  S
C2261      C2262   1.418       .  A
C2262      C2263   1.502       .  S
C2263      H2267   1.111       .  S
C2263      H2268   1.101       .  S
C2263      H2269   1.110       .  S
C2266      H2270   1.105       .  S
C2266      H2271   1.110       .  S
C2266      H2272   1.111       .  S
C2273      C2274   1.406       .  A
C2273      C2278   1.402       .  A
C2273      H2280   1.076       .  S
C2274      C2275   1.434       .  A
C2275      C2282   1.512       .  S
C2275      C2276   1.405       .  A
C2276      C2277   1.399       .  A
C2276      H2281   1.084   1_554  S
C2277      C2278   1.423       .  A
C2278      C2279   1.508       .  S
C2279      H2283   1.111       .  S
C2279      H2284   1.103       .  S
C2279      H2285   1.110   1_554  S
C2282      H2286   1.107       .  S
C2282      H2287   1.108       .  S
C2282      H2288   1.111       .  S
C2289      C2290   1.401       .  A
C2289      C2294   1.405       .  A
C2289      H2296   1.085       .  S
C2290      C2291   1.407       .  A
C2291      C2298   1.502       .  S
C2291      C2292   1.398       .  A
C2292      C2293   1.405       .  A
C2292      H2297   1.079       .  S
C2293      C2294   1.422       .  A
C2294      C2295   1.505       .  S
C2295      H2299   1.111       .  S
C2295      H2300   1.103       .  S
C2295      H2301   1.110       .  S
C2298      H2302   1.109       .  S
C2298      H2303   1.109       .  S
C2298      H2304   1.111       .  S
C2305      C2306   1.412       .  A
C2305      C2310   1.403       .  A
C2305      H2312   1.085       .  S
C2306      C2307   1.411       .  A
C2307      C2314   1.509   1_554  S
C2307      C2308   1.401       .  A
C2308      C2309   1.417       .  A
C2308      H2313   1.085       .  S
C2309      C2310   1.412       .  A
C2310      C2311   1.504       .  S
C2311      H2315   1.111       .  S
C2311      H2316   1.110       .  S
C2311      H2317   1.108       .  S
C2314      H2318   1.110       .  S
C2314      H2319   1.109       .  S
C2314      H2320   1.111   1_556  S
C2321      C2322   1.404       .  A
C2321      C2326   1.392       .  A
C2321      H2328   1.083       .  S
C2322      C2323   1.416       .  A
C2323      C2330   1.503       .  S
C2323      C2324   1.402       .  A
C2324      C2325   1.400       .  A
C2324      H2329   1.085       .  S
C2325      C2326   1.409       .  A
C2326      C2327   1.506       .  S
C2327      H2331   1.111       .  S
C2327      H2332   1.103       .  S
C2327      H2333   1.110       .  S
C2330      H2334   1.106       .  S
C2330      H2335   1.109       .  S
C2330      H2336   1.111       .  S
C2337      C2338   1.399       .  A
C2337      C2342   1.399       .  A
C2337      H2344   1.077       .  S
C2338      C2339   1.431       .  A
C2339      C2346   1.514       .  S
C2339      C2340   1.405       .  A
C2340      C2341   1.400       .  A
C2340      H2345   1.084   1_554  S
C2341      C2342   1.421       .  A
C2342      C2343   1.499       .  S
C2343      H2347   1.111       .  S
C2343      H2348   1.108       .  S
C2343      H2349   1.109       .  S
C2346      H2350   1.108       .  S
C2346      H2351   1.106       .  S
C2346      H2352   1.111       .  S
C2353      C2354   1.525       .  S
C2353      C2359   1.522       .  S
C2353      C2357   1.552       .  S
C2353      C3514   1.534       .  S
C2354      H2361   1.085       .  S
C2354      C2355   1.365       .  D
C2355      C2356   1.548       .  S
C2355      C2413   1.475       .  S
C2356      C2360   1.530       .  S
C2356      C2358   1.552       .  S
C2356      H2362   1.111       .  S
C2357      H2363   1.081       .  S
C2357      C2358   1.373       .  D
C2358      C2431   1.487       .  S
C2359      H2364   1.089       .  S
C2359      C2360   1.351       .  D
C2360      C3501   1.460       .  S
C2365      C2366   1.529       .  S
C2365      C2371   1.526       .  S
C2365      C2369   1.546       .  S
C2365      C3485   1.536       .  S
C2366      H2373   1.087       .  S
C2366      C2367   1.363       .  D
C2367      C2427   1.489       .  S
C2368      C2372   1.534   1_455  S
C2368      H2374   1.110   1_455  S
C2369      H2375   1.081       .  S
C2369      C2370   1.376       .  D
C2370      C2495   1.493       .  S
C2371      H2376   1.089       .  S
C2372      C3466   1.469       .  S
C2377      C2378   1.533       .  S
C2377      C2383   1.516       .  S
C2377      C2381   1.550       .  S
C2377      C3450   1.538       .  S
C2378      H2385   1.083       .  S
C2378      C2379   1.368       .  D
C2379      C3556   1.563       .  S
C2379      C2503   1.494       .  S
C2380      C3555   1.563       .  S
C2380      C2384   1.535   1_565  S
C2380      C3558   1.565       .  S
C2380      H2386   1.110   1_565  S
C2381      H2387   1.082       .  S
C2381      C2382   1.373       .  D
C2382      C3556   1.564       .  S
C2382      C3597   1.495       .  S
C2383      H3564   1.090       .  S
C2383      C3560   1.344       .  D
C2384      C3559   1.345   1_545  D
C2384      C3434   1.469       .  S
H2388      C3559   1.090       .  S
O2389      C2404   1.256       .  A
O2389     Al2397   1.864       .  S
C2390      O2400   1.254       .  A
C2390      O2391   1.268       .  A
C2390      C3482   1.483   1_556  S
O2391     Al2393   1.935       .  S
O2392      C2394   1.249       .  A
O2392     Al2393   1.859       .  S
Al2393     O2401   1.857       .  S
Al2393     O2403   1.933       .  S
Al2393     O2402   1.780       .  S
C2394      O2407   1.266       .  A
C2394      C3453   1.496   1_556  S
O2395      C2405   1.254       .  A
O2395     Al2397   1.873       .  S
O2396      C2409   1.257       .  A
O2396     Al2406   1.872       .  S
Al2397     O2410   1.937       .  S
Al2397     O2407   1.935       .  S
Al2397     O2402   1.776       .  S
O2398      C2405   1.267       .  A
O2398     Al2406   1.935       .  S
O2399      C2408   1.262       .  A
O2399     Al2406   1.915       .  S
O2400     Al2406   1.850       .  S
O2401      C2408   1.249       .  A
O2402     Al2406   1.781       .  S
O2403      C2404   1.267       .  A
C2404      C3386   1.486       .  S
C2405      C3517   1.494   1_556  S
C2408      C3402   1.469       .  S
C2409      O2410   1.267       .  A
C2409      C3421   1.490       .  S
C2411      C3370   1.503       .  S
C2411      N2412   1.367       .  A
C2411      N2416   1.369       .  A
N2412      C2413   1.363       .  A
C2413      N2414   1.354       .  A
N2414      C2415   1.351       .  A
C2415      C2449   1.482       .  S
C2415      N2416   1.363       .  A
C2417      C3373   1.506       .  S
C2417      N2418   1.355   1_545  A
C2417      N2422   1.363       .  A
N2418      C3595   1.360       .  A
C2419      C2461   1.507       .  S
C2419      N3594   1.360       .  A
C2419      N2420   1.365       .  A
N2420      C3597   1.375       .  A
C2421      C3558   1.496       .  S
C2421      N3596   1.375       .  A
C2421      N2422   1.368   1_565  A
C2423      C3354   1.499       .  S
C2423      N2424   1.352   1_655  A
C2423      N2428   1.363       .  A
C2425      C2464   1.505       .  S
C2425      N2426   1.365       .  A
N2426      C2427   1.377       .  A
C2429      C3357   1.500       .  S
C2429      N2430   1.363       .  A
C2429      N2434   1.370       .  A
N2430      C2431   1.360       .  A
C2431      N2432   1.359       .  A
N2432      C2433   1.361       .  A
C2433      C2440   1.492       .  S
C2433      N2434   1.365       .  A
C2435      C2436   1.543       .  S
C2435      C2441   1.518       .  S
C2435      C2439   1.532       .  S
C2435      C3338   1.538       .  S
C2436      H2443   1.086       .  S
C2436      C2437   1.367       .  D
C2437      C2438   1.561       .  S
C2437      C2501   1.496       .  S
C2438      C2442   1.540       .  S
C2438      C2440   1.568       .  S
C2438      H2444   1.110       .  S
C2439      H2445   1.079       .  S
C2439      C2440   1.370       .  D
C2441      H2446   1.089       .  S
C2441      C2442   1.352       .  D
C2442      C3325   1.474       .  S
C2447      C2448   1.545       .  S
C2447      C2453   1.526       .  S
C2447      C2451   1.525       .  S
C2447      C3306   1.538       .  S
C2448      H2455   1.079       .  S
C2448      C2449   1.374       .  D
C2449      C2450   1.549       .  S
C2450      C2454   1.534       .  S
C2450      C2452   1.563       .  S
C2450      H2456   1.111       .  S
C2451      H2457   1.087       .  S
C2451      C2452   1.365       .  D
C2452      C2497   1.491       .  S
C2453      H2458   1.089       .  S
C2453      C2454   1.354       .  D
C2454      C3293   1.471       .  S
C2459      C2460   1.537       .  S
C2459      C2465   1.512       .  S
C2459      C2463   1.512       .  S
C2459      C3258   1.530       .  S
C2460      H2467   1.081       .  S
C2460      C2461   1.375       .  D
C2461      C2462   1.569       .  S
C2462      C2466   1.551       .  S
C2462      C2464   1.572       .  S
C2462      H2468   1.110       .  S
C2463      H2469   1.086       .  S
C2463      C2464   1.366       .  D
C2465      H2470   1.088       .  S
C2465      C2466   1.356       .  D
C2466      C3274   1.473       .  S
O2471      C2486   1.267       .  A
O2471     Al2479   1.929       .  S
C2472      O2482   1.263       .  A
C2472      O2473   1.257       .  A
C2472      C3309   1.483       .  S
O2473     Al2475   1.881       .  S
O2474      C2476   1.266       .  A
O2474     Al2475   1.938       .  S
Al2475     O2483   1.938       .  S
Al2475     O2485   1.873       .  S
Al2475     O2484   1.778       .  S
C2476      O2489   1.249       .  A
C2476      C3341   1.477       .  S
O2477      C2487   1.270       .  A
O2477     Al2479   1.937       .  S
O2478      C2491   1.265       .  A
O2478     Al2488   1.935       .  S
Al2479     O2492   1.854       .  S
Al2479     O2489   1.844       .  S
Al2479     O2484   1.772       .  S
O2480      C2487   1.253       .  A
O2480     Al2488   1.870       .  S
O2481      C2490   1.253       .  A
O2481     Al2488   1.862       .  S
O2482     Al2488   1.916       .  S
O2483      C2490   1.269       .  A
O2484     Al2488   1.777       .  S
O2485      C2486   1.258       .  A
C2486      C3242   1.492       .  S
C2487      C3277   1.494       .  S
C2490      C3226   1.476       .  S
C2491      O2492   1.252       .  A
C2491      C3213   1.486       .  S
C2493      C3197   1.508       .  S
C2493      N2494   1.369       .  A
C2495      N2496   1.357       .  A
N2496      C2497   1.360       .  A
C2497      N2498   1.365       .  A
C2499      C3194   1.508       .  S
C2499      N2500   1.371   1_545  A
C2499      N2504   1.369       .  A
N2500      C3677   1.364       .  A
C2501      N3676   1.364       .  A
C2501      N2502   1.362       .  A
N2502      C2503   1.361       .  A
C2503      N3680   1.363       .  A
N2504      C3679   1.364   1_545  A
C2505      C2506   1.542       .  S
C2505      C2511   1.519       .  S
C2505      C2509   1.528       .  S
C2505      C3178   1.532       .  S
C2506      H2513   1.085       .  S
C2506      C2507   1.373       .  D
C2507      C2508   1.564       .  S
C2507      C2583   1.486       .  S
C2508      C2512   1.536       .  S
C2508      C2510   1.558       .  S
C2508      H2514   1.110       .  S
C2509      H2515   1.081       .  S
C2509      C2510   1.366       .  D
C2510      C2589   1.488       .  S
C2511      H2516   1.090       .  S
C2511      C2512   1.348       .  D
C2512      C3162   1.475       .  S
C2517      C2518   1.526       .  S
C2517      C2523   1.514       .  S
C2517      C2521   1.518       .  S
C2517      C3133   1.535       .  S
C2518      H2525   1.082       .  S
C2518      C2519   1.375       .  D
C2519      C2520   1.569       .  S
C2520      C2524   1.553       .  S
C2520      C2522   1.560       .  S
C2520      H2526   1.110       .  S
C2521      H2527   1.087       .  S
C2521      C2522   1.372       .  D
C2522      C2573   1.501       .  S
C2523      H2528   1.088       .  S
C2523      C2524   1.360       .  D
C2524      C3146   1.475       .  S
C2529      C2530   1.518       .  S
C2529      C2535   1.529       .  S
C2529      C2533   1.547       .  S
C2529      C3114   1.532       .  S
C2530      H2537   1.088       .  S
C2530      C2531   1.361       .  D
C2531      C2532   1.569       .  S
C2531      C2597   1.496       .  S
C2532      C2536   1.546       .  S
C2532      C2534   1.572       .  S
C2532      H2538   1.110       .  S
C2533      H2539   1.082       .  S
C2533      C2534   1.375       .  D
C2534      C2565   1.503       .  S
C2535      H2540   1.089       .  S
C2535      C2536   1.351       .  D
C2536      C3098   1.486       .  S
O2541      C2556   1.266       .  A
O2541     Al2549   1.896       .  S
C2542      O2552   1.249       .  A
C2542      O2543   1.258   1_655  A
C2542      C3181   1.483       .  S
O2544      C2546   1.252   1_565  A
O2544     Al3721   1.877       .  S
Al2545     O3720   1.874       .  S
Al2545     O2553   1.868       .  S
Al2545     O3731   1.930       .  S
Al2545     O3730   1.783       .  S
C2546      O2559   1.258       .  A
C2546      C3117   1.479       .  S
O2547     Al2549   1.882       .  S
O2548      C2561   1.247   1_565  A
O2548     Al3734   1.857       .  S
Al2549     O2559   1.908       .  S
Al2549     O2554   1.785   1_545  S
O2550      C2557   1.273       .  A
O2550     Al3734   1.942   1_545  S
O2551      C2560   1.266       .  A
O2551     Al2558   1.927       .  S
O2552     Al2558   1.836       .  S
O2554     Al3721   1.782       .  S
O2555      C2556   1.271       .  A
O2555     Al3721   1.931   1_545  S
C2556      C3053   1.491       .  S
C2557      C3149   1.497       .  S
Al2558     O3724   1.861       .  S
Al2558     O3726   1.942       .  S
C2560      C3082   1.486       .  S
C2561      O2562   1.257       .  A
C2561      C3069   1.469       .  S
C2563      C3034   1.493       .  S
C2563      N2564   1.364       .  A
C2563      N3744   1.340   1_545  A
N2564      C2565   1.373       .  A
C2565      N2566   1.384   1_545  A
N2566      C3743   1.371       .  A
C2567      C2601   1.510       .  S
C2567      N3742   1.372       .  A
C2567      N2568   1.349       .  A
N2568      C3739   1.341       .  A
C2569      C3037   1.494       .  S
C2569      N2570   1.364       .  A
C2569      N3750   1.345       .  A
N2570      C2571   1.369       .  A
C2571      C2625   1.499       .  S
C2571      N2572   1.380       .  A
N2572      C3749   1.369       .  A
C2573      N3748   1.369       .  A
C2573      N2574   1.351       .  A
N2574      C3745   1.345   1_545  A
C2575      C3018   1.501       .  S
C2575      N2576   1.349       .  A
C2575      N2580   1.364       .  A
N2576      C2577   1.354       .  A
C2577      N2578   1.365       .  A
N2578      C2579   1.376       .  A
C2579      C2616   1.490       .  S
C2579      N2580   1.368       .  A
C2581      C3021   1.497       .  S
C2581      N2582   1.361       .  A
N2582      C2583   1.368       .  A
C2583      N2584   1.377   1_655  A
C2585      C2604   1.501       .  S
C2585      N2586   1.352       .  A
C2587      C3002   1.504       .  S
C2587      N2588   1.369       .  A
C2587      N2592   1.371       .  A
N2588      C2589   1.363       .  A
C2589      N2590   1.355       .  A
N2590      C2591   1.354       .  A
C2591      C2628   1.492       .  S
C2591      N2592   1.365       .  A
C2593      C3005   1.502       .  S
C2593      N2594   1.368       .  A
C2593      N2598   1.370       .  A
N2594      C2595   1.362       .  A
C2595      C2613   1.492       .  S
C2595      N2596   1.358       .  A
N2596      C2597   1.360       .  A
C2597      N2598   1.364       .  A
C2599      C2600   1.518       .  S
C2599      C2605   1.504       .  S
C2599      C2603   1.520       .  S
C2599      C3210   1.536       .  S
C2600      H2607   1.079       .  S
C2600      C2601   1.380       .  D
C2601      C2602   1.567       .  S
C2602      C2606   1.549       .  S
C2602      C2604   1.571       .  S
C2602      H2608   1.110       .  S
C2603      H2609   1.083       .  S
C2603      C2604   1.376       .  D
C2605      H2610   1.090       .  S
C2605      C2606   1.352       .  D
C2606      C2986   1.470       .  S
C2611      C2612   1.541       .  S
C2611      C2617   1.517       .  S
C2611      C2615   1.527       .  S
C2611      C2970   1.526       .  S
C2612      H2619   1.083       .  S
C2612      C2613   1.372       .  D
C2613      C2614   1.565       .  S
C2614      C2618   1.541       .  S
C2614      C2616   1.567       .  S
C2614      H2620   1.110       .  S
C2615      H2621   1.087       .  S
C2615      C2616   1.362       .  D
C2617      H2622   1.088       .  S
C2617      C2618   1.350       .  D
C2618      C3229   1.476       .  S
C2623      C2624   1.548       .  S
C2623      C2629   1.518       .  S
C2623      C2627   1.526       .  S
C2623      C2957   1.534       .  S
C2624      H2631   1.083       .  S
C2624      C2625   1.373       .  D
C2625      C2626   1.571       .  S
C2626      C2630   1.540       .  S
C2626      C2628   1.561       .  S
C2626      H2632   1.110       .  S
C2627      H2633   1.083       .  S
C2627      C2628   1.366       .  D
C2629      H2634   1.090       .  S
C2629      C2630   1.347       .  D
C2630      C3245   1.475       .  S
O2635      C2650   1.264       .  A
O2635     Al2643   1.925       .  S
C2636      O2646   1.268       .  A
C2636      O2637   1.252       .  A
C2636      C2954   1.490       .  S
O2637     Al3815   1.867       .  S
O2638      C2640   1.267       .  A
Al2639     O3813   1.865       .  S
Al2639     O3823   1.930   1_545  S
C2640      O2653   1.257       .  A
C2640      C2973   1.490       .  S
O2641      C2651   1.267       .  A
O2641     Al3819   1.924       .  S
O2642      C2655   1.265       .  A
Al2643     O3817   1.922   1_545  S
Al2643     O3832   1.866   1_545  S
Al2643     O2653   1.874       .  S
Al2643     O3824   1.772   1_545  S
O2644      C2651   1.259       .  A
O2645      C2654   1.259       .  A
O2645     Al2652   1.884       .  S
O2646     Al2652   1.926       .  S
O2647      C2654   1.266       .  A
O2647     Al3815   1.929       .  S
O2648     Al3819   1.771       .  S
O2649      C2650   1.255       .  A
C2650      C3290   1.483       .  S
C2651      C2989   1.496       .  S
C2654      C3322   1.496       .  S
C2655      O2656   1.256       .  A
C2655      C3261   1.473       .  S
O2656     Al3819   1.865       .  S
C2657      C2658   1.535       .  S
C2657      C2663   1.517       .  S
C2657      C2661   1.538       .  S
C2657      C2941   1.538       .  S
C2658      H2665   1.081       .  S
C2658      C2659   1.368       .  D
C2659      C2660   1.562       .  S
C2659      C2737   1.500       .  S
C2660      C2664   1.539       .  S
C2660      C2662   1.571       .  S
C2660      H2666   1.110       .  S
C2661      H2667   1.085       .  S
C2661      C2662   1.374       .  D
C2662      C2725   1.496       .  S
C2663      H2668   1.090       .  S
C2663      C2664   1.348       .  D
C2664      C3085   1.472       .  S
C2669      C2670   1.538       .  S
C2669      C2675   1.519       .  S
C2669      C2673   1.540       .  S
C2669      C2922   1.542       .  S
C2670      H2677   1.081       .  S
C2670      C2671   1.373       .  D
C2671      C2672   1.562       .  S
C2671      C2743   1.493       .  S
C2672      C2676   1.534       .  S
C2672      C2674   1.562       .  S
C2672      H2678   1.110       .  S
C2673      H2679   1.085       .  S
C2673      C2674   1.367       .  D
C2674      C2731   1.496       .  S
C2675      H2680   1.089       .  S
C2675      C2676   1.352       .  D
C2676      C3050   1.466       .  S
C2681      C2682   1.524       .  S
C2681      C2687   1.509       .  S
C2681      C2685   1.529       .  S
C2681      C3066   1.526       .  S
C2682      H2689   1.082       .  S
C2682      C2683   1.369       .  D
C2683      C2684   1.560       .  S
C2683      C2749   1.487       .  S
C2684      C2688   1.542       .  S
C2684      C2686   1.563       .  S
C2684      H2690   1.110       .  S
C2685      H2691   1.084       .  S
C2685      C2686   1.373       .  D
C2686      C2719   1.496       .  S
C2687      H2692   1.089       .  S
C2687      C2688   1.356       .  D
C2688      C2906   1.469       .  S
O2693      C2708   1.261       .  A
O2693     Al2701   1.910       .  S
C2694      O2704   1.261       .  A
C2694      O2695   1.256       .  A
C2694      C2925   1.493       .  S
O2695     Al2697   1.882       .  S
O2696      C2698   1.267       .  A
O2696     Al2697   1.943       .  S
Al2697     O2705   1.934       .  S
Al2697     O2707   1.883       .  S
Al2697     O2706   1.775       .  S
C2698      O2711   1.255       .  A
C2698      C2938   1.491       .  S
O2699      C2709   1.266       .  A
O2699     Al2701   1.929       .  S
O2700      C2713   1.265       .  A
O2700     Al2710   1.927       .  S
Al2701     O2714   1.874       .  S
Al2701     O2711   1.852       .  S
Al2701     O2706   1.774       .  S
O2702      C2709   1.259       .  A
O2702     Al2710   1.886       .  S
O2703      C2712   1.259       .  A
O2703     Al2710   1.884       .  S
O2704     Al2710   1.922       .  S
O2705      C2712   1.271       .  A
O2706     Al2710   1.780       .  S
O2707      C2708   1.258       .  A
C2708      C3165   1.490       .  S
C2709      C2909   1.495       .  S
C2712      C3101   1.486       .  S
C2713      O2714   1.255       .  A
C2713      C3130   1.483       .  S
C2715      C2890   1.509       .  S
C2715      N2716   1.366       .  A
C2715      N2720   1.348       .  A
N2716      C3893   1.373       .  A
C2717      C2765   1.499       .  S
C2717      N3892   1.374   1_545  A
C2717      N2718   1.374       .  A
N2718      C2719   1.364       .  A
C2719      N3896   1.354       .  A
N2720      C3895   1.354       .  A
C2721      C2893   1.508       .  S
C2721      N2722   1.364       .  A
C2721      N2726   1.375       .  A
N2722      C2723   1.359       .  A
C2723      C2756   1.481       .  S
C2723      N2724   1.358       .  A
N2724      C2725   1.359       .  A
C2725      N2726   1.366       .  A
C2727      C2877   1.527       .  S
C2727      N2728   1.375       .  A
C2727      N2732   1.374       .  A
N2728      C3905   1.368       .  A
C2729      C2768   1.492       .  S
C2729      N3904   1.367   1_545  A
C2729      N2730   1.355       .  A
N2730      C2731   1.355       .  A
C2731      N3908   1.366       .  A
N2732      C3907   1.365       .  A
C2733      C2874   1.526       .  S
C2733      N2734   1.374       .  A
C2733      N2738   1.373       .  A
C2735      N2736   1.359       .  A
N2736      C2737   1.358       .  A
C2739      C2861   1.497       .  S
C2739      N2740   1.362       .  A
C2739      N2744   1.370       .  A
N2740      C2741   1.357       .  A
C2741      C2753   1.482       .  S
C2741      N2742   1.360       .  A
N2742      C2743   1.360       .  A
C2743      N2744   1.366       .  A
C2745      C2858   1.498       .  S
C2745      N2746   1.367       .  A
C2745      N2750   1.352       .  A
N2746      C2747   1.370       .  A
C2747      C2780   1.488       .  S
N2748      C2749   1.358       .  A
C2751      C2752   1.538       .  S
C2751      C2757   1.532       .  S
C2751      C2755   1.529       .  S
C2751      C2842   1.531       .  S
C2752      H2759   1.081       .  S
C2752      C2753   1.369       .  D
C2753      C2754   1.557       .  S
C2754      C2758   1.537       .  S
C2754      C2756   1.553       .  S
C2754      H2760   1.111       .  S
C2755      H2761   1.087       .  S
C2755      C2756   1.365       .  D
C2757      H2762   1.088       .  S
C2757      C2758   1.350       .  D
C2758      C3418   1.473       .  S
C2763      C2764   1.550       .  S
C2763      C2769   1.528       .  S
C2763      C2767   1.529       .  S
C2763      C2826   1.542       .  S
C2764      H2771   1.080       .  S
C2764      C2765   1.377       .  D
C2765      C3942   1.562   1_545  S
C2766      C3941   1.562       .  S
C2766      C2770   1.532       .  S
C2766      C3944   1.557       .  S
C2766      H2772   1.110       .  S
C2767      H2773   1.087       .  S
C2767      C2768   1.366       .  D
C2768      C3942   1.557   1_545  S
C2769      H2774   1.089       .  S
C2769      C3946   1.351   1_545  D
C2770      C3945   1.350       .  D
C2770      C3389   1.465       .  S
C2775      C2776   1.546       .  S
C2775      C2779   1.531       .  S
C2775      C2810   1.541       .  S
C2776      H2783   1.081       .  S
C2777      C2778   1.559       .  S
C2778      C2782   1.527       .  S
C2778      C2780   1.566       .  S
C2778      H2784   1.110       .  S
C2779      H2785   1.083       .  S
C2781      H2786   1.090       .  S
C2781      C2782   1.350       .  D
C2782      C3405   1.462       .  S
O2787      C2802   1.261   1_556  A
O2787     Al2795   1.919       .  S
C2788      O2798   1.263       .  A
C2788      O2789   1.256       .  A
C2788      C2829   1.493       .  S
O2789     Al2791   1.882       .  S
O2790      C2792   1.270       .  A
O2790     Al2791   1.938       .  S
Al2791     O2799   1.943       .  S
Al2791     O2801   1.882       .  S
Al2791     O2800   1.772       .  S
C2792      O2805   1.253       .  A
C2792      C2813   1.492       .  S
O2793      C2803   1.262       .  A
O2793     Al2795   1.915       .  S
O2794      C2807   1.267   1_556  A
O2794     Al2804   1.932       .  S
Al2795     O2808   1.857       .  S
Al2795     O2805   1.857       .  S
Al2795     O2800   1.773       .  S
O2796      C2803   1.255       .  A
O2796     Al2804   1.874       .  S
O2797      C2806   1.256   1_556  A
O2797     Al2804   1.862       .  S
O2798     Al2804   1.920       .  S
O2799      C2806   1.270   1_556  A
O2800     Al2804   1.776       .  S
O2801      C2802   1.258   1_556  A
C2802      C3469   1.488       .  S
C2803      C2845   1.477       .  S
C2806      C3437   1.489       .  S
C2807      O2808   1.256   1_554  A
C2807      C3498   1.474       .  S
C2809      C2810   1.409       .  A
C2809      C2814   1.398       .  A
C2809      H2816   1.073       .  S
C2810      C2811   1.430       .  A
C2811      C2818   1.511       .  S
C2811      C2812   1.407       .  A
C2812      C2813   1.402       .  A
C2812      H2817   1.084       .  S
C2813      C2814   1.419       .  A
C2814      C2815   1.512       .  S
C2815      H2819   1.111       .  S
C2815      H2820   1.110       .  S
C2815      H2821   1.103       .  S
C2818      H2823   1.106       .  S
C2818      H2824   1.111       .  S
C2825      C2826   1.415       .  A
C2825      C2830   1.402       .  A
C2825      H2832   1.084       .  S
C2826      C2827   1.413       .  A
C2827      C2834   1.502       .  S
C2827      C2828   1.406       .  A
C2828      C2829   1.412       .  A
C2828      H2833   1.083       .  S
C2829      C2830   1.414       .  A
C2830      C2831   1.508       .  S
C2831      H2835   1.111       .  S
C2831      H2836   1.110       .  S
C2831      H2837   1.110       .  S
C2834      H2838   1.109       .  S
C2834      H2839   1.109       .  S
C2834      H2840   1.111       .  S
C2841      C2842   1.411       .  A
C2841      C2846   1.397       .  A
C2841      H2848   1.085       .  S
C2842      C2843   1.413       .  A
C2843      C2850   1.505       .  S
C2843      C2844   1.401       .  A
C2844      C2845   1.409       .  A
C2844      H2849   1.085       .  S
C2845      C2846   1.413       .  A
C2846      C2847   1.509       .  S
C2847      H2851   1.111       .  S
C2847      H2852   1.109       .  S
C2847      H2853   1.111       .  S
C2850      H2854   1.109       .  S
C2850      H2855   1.110       .  S
C2850      H2856   1.111       .  S
C2857      C2858   1.404       .  A
C2857      C2862   1.414       .  A
C2857      H2864   1.084       .  S
C2858      C2859   1.422       .  A
C2859      C2866   1.509       .  S
C2859      C2860   1.408       .  A
C2860      C2861   1.402       .  A
C2860      H2865   1.084       .  S
C2861      C2862   1.421       .  A
C2862      C2863   1.507       .  S
C2863      H2867   1.111       .  S
C2863      H2868   1.110       .  S
C2863      H2869   1.109       .  S
C2866      H2870   1.108       .  S
C2866      H2871   1.111       .  S
C2866      H2872   1.111       .  S
C2873      C2874   1.408       .  A
C2873      C2878   1.413       .  A
C2873      H2880   1.081       .  S
C2874      C2875   1.425       .  A
C2875      C2882   1.504       .  S
C2875      C2876   1.420       .  A
C2876      C2877   1.413       .  A
C2876      H2881   1.083       .  S
C2877      C2878   1.425       .  A
C2878      C2879   1.504       .  S
C2879      H2883   1.111       .  S
C2879      H2884   1.109       .  S
C2879      H2885   1.109       .  S
C2882      H2886   1.109       .  S
C2882      H2887   1.109       .  S
C2882      H2888   1.110       .  S
C2889      C2890   1.406       .  A
C2889      C2894   1.417       .  A
C2889      H2896   1.084       .  S
C2890      C2891   1.428       .  A
C2891      C2898   1.511       .  S
C2891      C2892   1.407       .  A
C2892      C2893   1.401       .  A
C2892      H2897   1.084       .  S
C2893      C2894   1.426       .  A
C2894      C2895   1.508       .  S
C2895      H2899   1.111       .  S
C2895      H2900   1.110       .  S
C2895      H2901   1.110       .  S
C2898      H2902   1.110       .  S
C2898      H2903   1.108       .  S
C2898      H2904   1.111       .  S
C2905      C2906   1.403       .  A
C2905      C2910   1.406       .  A
C2905      H2912   1.085       .  S
C2906      C2907   1.405       .  A
C2907      C2914   1.507       .  S
C2907      C2908   1.401       .  A
C2908      C2909   1.411       .  A
C2908      H2913   1.078       .  S
C2909      C2910   1.422       .  A
C2910      C2911   1.506       .  S
C2911      H2915   1.111       .  S
C2911      H2916   1.104       .  S
C2911      H2917   1.110       .  S
C2914      H2918   1.110       .  S
C2914      H2919   1.110       .  S
C2914      H2920   1.111       .  S
C2921      C2922   1.417       .  A
C2921      C2926   1.405       .  A
C2921      H2928   1.078       .  S
C2922      C2923   1.428       .  A
C2923      C2930   1.511       .  S
C2923      C2924   1.404       .  A
C2924      C2925   1.402       .  A
C2924      H2929   1.080       .  S
C2925      C2926   1.414       .  A
C2926      C2927   1.511       .  S
C2927      H2931   1.111       .  S
C2927      H2932   1.104       .  S
C2927      H2933   1.110       .  S
C2930      H2934   1.107       .  S
C2930      H2935   1.109       .  S
C2930      H2936   1.111       .  S
C2937      C2938   1.398       .  A
C2937      C2942   1.395       .  A
C2937      H2944   1.081       .  S
C2938      C2939   1.412       .  A
C2939      C2946   1.504       .  S
C2939      C2940   1.411       .  A
C2940      C2941   1.416       .  A
C2940      H2945   1.080       .  S
C2941      C2942   1.432       .  A
C2942      C2943   1.515       .  S
C2943      H2947   1.111       .  S
C2943      H2948   1.107       .  S
C2943      H2949   1.107       .  S
C2946      H2950   1.102       .  S
C2946      H2951   1.110       .  S
C2946      H2952   1.111       .  S
C2953      C2954   1.397       .  A
C2953      C2958   1.399       .  A
C2953      H2960   1.084       .  S
C2954      C2955   1.421       .  A
C2955      C4138   1.507       .  S
C2955      C2956   1.404       .  A
C2956      C2957   1.407       .  A
C2956      H2961   1.077       .  S
C2957      C2958   1.433       .  A
C2958      C2959   1.515       .  S
C2959      H2963   1.111       .  S
C2959      H2964   1.108       .  S
C2959      H2965   1.107       .  S
C2962      C4131   1.507   1_545  S
C2962      H4142   1.110       .  S
C2962      H2967   1.102       .  S
C2962      H2968   1.111       .  S
H2966      C4138   1.110       .  S
C2969      C2970   1.393       .  A
C2969      C2974   1.395       .  A
C2969      H2976   1.080       .  S
C2970      C2971   1.431       .  A
C2971      C2978   1.511       .  S
C2971      C2972   1.401       .  A
C2972      C2973   1.400       .  A
C2972      H2977   1.084       .  S
C2973      C2974   1.420       .  A
C2974      C2975   1.491       .  S
C2975      H2979   1.111       .  S
C2975      H2980   1.108       .  S
C2975      H2981   1.108       .  S
C2978      H2982   1.110       .  S
C2978      H2983   1.104       .  S
C2978      H2984   1.110       .  S
C2985      C2986   1.400       .  A
C2985      C2990   1.410       .  A
C2985      H2992   1.084       .  S
C2986      C2987   1.411       .  A
C2987      C2994   1.507       .  S
C2987      C2988   1.394       .  A
C2988      C2989   1.405       .  A
C2988      H2993   1.084       .  S
C2989      C2990   1.424       .  A
C2991      H2995   1.111       .  S
C2991      H2996   1.110       .  S
C2991      H2997   1.103       .  S
C2994      H2998   1.110       .  S
C2994      H2999   1.110       .  S
C2994      H4176   1.110       .  S
H3000      C4170   1.110   1_545  S
C3001      C3002   1.407       .  A
C3001      C3006   1.415       .  A
C3001      H3008   1.084       .  S
C3002      C3003   1.419       .  A
C3003      C3010   1.507       .  S
C3003      C3004   1.414       .  A
C3004      C3005   1.406       .  A
C3004      H3009   1.084       .  S
C3005      C3006   1.419       .  A
C3006      C3007   1.507       .  S
C3007      H3011   1.111       .  S
C3007      H3012   1.110       .  S
C3007      H3013   1.107       .  S
C3010      H3014   1.107       .  S
C3010      H3015   1.110       .  S
C3010      H3016   1.111       .  S
C3017      C3022   1.409       .  A
C3017      H3024   1.083       .  S
C3018      C3019   1.414       .  A
C3019      C3026   1.506       .  S
C3019      C3020   1.407       .  A
C3020      H3025   1.084       .  S
C3021      C3022   1.413       .  A
C3022      C3023   1.508       .  S
C3023      H3027   1.111       .  S
C3023      H3028   1.110       .  S
C3023      H3029   1.110       .  S
C3026      H3030   1.110       .  S
C3026      H3031   1.109       .  S
C3026      H3032   1.111       .  S
C3033      C4210   1.412       .  A
C3033      C3038   1.408       .  A
C3033      H3040   1.084       .  S
C3034      C4209   1.412   1_545  A
C3034      C3035   1.409       .  A
C3035      C3042   1.503       .  S
C3035      C3036   1.408       .  A
C3036      C4213   1.414   1_545  A
C3036      H3041   1.084       .  S
C3037      C4212   1.413       .  A
C3037      C3038   1.411       .  A
C3038      C3039   1.505       .  S
C3039      H3043   1.111       .  S
C3039      H3044   1.109       .  S
C3039      H3045   1.110       .  S
C3042      H3046   1.110       .  S
C3042      H3047   1.109       .  S
C3042      H3048   1.111       .  S
C3049      C3050   1.395       .  A
C3049      C3054   1.398       .  A
C3049      H3056   1.083       .  S
C3050      C3051   1.408       .  A
C3051      C3058   1.507       .  S
C3051      C3052   1.404       .  A
C3052      C3053   1.410       .  A
C3052      H3057   1.084       .  S
C3053      C3054   1.423       .  A
C3054      C3055   1.506   1_545  S
C3055      H3059   1.111       .  S
C3055      H3060   1.109       .  S
C3055      H3061   1.103       .  S
C3058      H3062   1.110       .  S
C3058      H3063   1.110       .  S
C3058      H3064   1.111       .  S
C3065      C3066   1.411       .  A
C3065      C3070   1.396       .  A
C3065      H3072   1.080       .  S
C3066      C3067   1.429       .  A
C3067      C3074   1.512       .  S
C3067      C3068   1.399       .  A
C3068      C3069   1.398       .  A
C3068      H3073   1.084   1_655  S
C3069      C3070   1.410       .  A
C3070      C4247   1.511   1_545  S
C3071      C4246   1.510       .  S
C3071      H3075   1.111       .  S
C3071      H3076   1.104       .  S
C3071      H3077   1.110       .  S
C3074      H3078   1.107   1_655  S
C3074      H3079   1.109       .  S
C3074      H3080   1.111   1_655  S
C3081      C3082   1.402       .  A
C3081      C3086   1.395       .  A
C3081      H3088   1.084   1_655  S
C3082      C3083   1.419       .  A
C3083      C3090   1.503       .  S
C3083      C3084   1.407       .  A
C3084      C3085   1.401       .  A
C3084      H3089   1.085       .  S
C3085      C3086   1.414       .  A
C3086      C3087   1.505       .  S
C3087      H3091   1.110   1_655  S
C3087      H3092   1.110       .  S
C3087      H3093   1.106       .  S
C3090      H3094   1.109       .  S
C3090      H3095   1.110       .  S
C3090      H3096   1.111       .  S
C3097      C3098   1.406       .  A
C3097      C3102   1.405       .  A
C3097      H3104   1.084       .  S
C3098      C3099   1.411       .  A
C3099      C3106   1.500       .  S
C3099      C3100   1.404       .  A
C3100      C3101   1.405       .  A
C3100      H3105   1.084       .  S
C3101      C3102   1.417       .  A
C3102      C3103   1.508       .  S
C3103      H3107   1.111       .  S
C3103      H3108   1.111       .  S
C3103      H3109   1.110       .  S
C3106      H3110   1.111       .  S
C3106      H3111   1.103       .  S
C3106      H3112   1.110       .  S
C3113      C3114   1.415       .  A
C3113      C3118   1.397       .  A
C3113      H3120   1.085       .  S
C3114      C3115   1.411       .  A
C3115      C3122   1.504   1_545  S
C3115      C3116   1.402       .  A
C3116      C3117   1.410       .  A
C3116      H3121   1.082   1_545  S
C3117      C3118   1.410       .  A
C3118      C3119   1.508       .  S
C3119      H3123   1.111       .  S
C3119      H3124   1.110       .  S
C3119      H3125   1.110       .  S
C3122      H3126   1.110       .  S
C3122      H3127   1.108   1_565  S
C3122      H4304   1.111       .  S
H3128      C4298   1.111       .  S
C3129      C3130   1.399       .  A
C3129      C3134   1.402       .  A
C3129      H3136   1.085       .  S
C3130      C3131   1.417       .  A
C3131      C3138   1.508       .  S
C3131      C3132   1.400       .  A
C3132      C3133   1.407       .  A
C3132      H3137   1.078       .  S
C3133      C3134   1.429       .  A
C3134      C3135   1.512       .  S
C3135      H3139   1.111       .  S
C3135      H3140   1.110       .  S
C3135      H3141   1.103       .  S
C3138      H3142   1.103       .  S
C3138      H3143   1.111       .  S
C3138      H3144   1.111       .  S
C3145      C3146   1.405       .  A
C3145      C3150   1.407       .  A
C3145      H3152   1.085       .  S
C3146      C3147   1.405       .  A
C3147      C3154   1.504   1_655  S
C3147      C3148   1.402       .  A
C3148      C3149   1.413       .  A
C3148      H3153   1.084   1_655  S
C3149      C3150   1.421       .  A
C3150      C3151   1.507   1_545  S
C3151      H3155   1.111       .  S
C3151      H4332   1.110       .  S
C3154      H3158   1.111       .  S
C3154      H3159   1.111       .  S
C3154      H3160   1.110       .  S
H3156      C4327   1.110       .  S
C3161      C3162   1.404       .  A
C3161      C3166   1.402       .  A
C3161      H3168   1.085       .  S
C3162      C3163   1.406       .  A
C3163      C3170   1.503       .  S
C3163      C3164   1.402       .  A
C3164      C3165   1.411       .  A
C3164      H3169   1.083       .  S
C3165      C3166   1.422       .  A
C3166      C3167   1.512       .  S
C3167      H3171   1.111       .  S
C3167      H3172   1.106       .  S
C3167      H3173   1.110       .  S
C3170      H3174   1.108       .  S
C3170      H3175   1.110       .  S
C3170      H3176   1.111       .  S
C3177      C3178   1.417       .  A
C3177      C3182   1.408       .  A
C3177      H3184   1.080   1_655  S
C3178      C3179   1.431       .  A
C3179      C3186   1.515       .  S
C3179      C3180   1.392       .  A
C3180      C3181   1.398       .  A
C3180      H3185   1.083       .  S
C3181      C3182   1.412       .  A
C3183      H3187   1.111       .  S
C3183      H3188   1.110       .  S
C3183      H3189   1.104       .  S
C3186      H3190   1.109       .  S
C3186      H3191   1.107       .  S
C3186      H3192   1.111       .  S
C3193      C3194   1.407       .  A
C3193      C3198   1.413       .  A
C3193      H3200   1.084       .  S
C3194      C3195   1.421       .  A
C3195      C3202   1.507       .  S
C3195      C3196   1.416       .  A
C3196      C3197   1.408       .  A
C3196      H3201   1.084       .  S
C3197      C3198   1.419       .  A
C3198      C3199   1.506       .  S
C3199      H3203   1.111       .  S
C3199      H3204   1.102   1_655  S
C3199      H3205   1.110       .  S
C3202      H3206   1.110       .  S
C3202      H3207   1.110       .  S
C3202      H3208   1.111       .  S
C3209      C3210   1.413       .  A
C3209      C3214   1.399       .  A
C3209      H3216   1.079       .  S
C3210      C3211   1.430       .  A
C3211      C3218   1.511       .  S
C3211      C3212   1.401       .  A
C3212      C3213   1.401       .  A
C3212      H3217   1.083       .  S
C3213      C3214   1.410       .  A
C3214      C3215   1.500       .  S
C3215      H3219   1.111       .  S
C3215      H3220   1.100       .  S
C3215      H3221   1.110       .  S
C3218      H3222   1.107       .  S
C3218      H3223   1.108       .  S
C3218      H3224   1.111       .  S
C3225      C3226   1.404       .  A
C3225      C3230   1.405       .  A
C3225      H3232   1.084       .  S
C3226      C3227   1.415       .  A
C3227      C3234   1.513       .  S
C3227      C3228   1.400       .  A
C3228      C3229   1.405       .  A
C3228      H3233   1.085       .  S
C3229      C3230   1.411       .  A
C3230      C3231   1.502       .  S
C3231      H3235   1.111       .  S
C3231      H3236   1.109       .  S
C3231      H3237   1.107       .  S
C3234      H3238   1.110       .  S
C3234      H3239   1.101       .  S
C3234      H3240   1.111       .  S
C3241      C3242   1.409       .  A
C3241      C3246   1.400       .  A
C3241      H3248   1.083       .  S
C3242      C3243   1.420       .  A
C3243      C3250   1.507       .  S
C3243      C3244   1.405       .  A
C3244      C3245   1.404       .  A
C3244      H3249   1.084       .  S
C3245      C3246   1.409       .  A
C3246      C3247   1.503       .  S
C3247      H3251   1.111       .  S
C3247      H3252   1.109       .  S
C3247      H3253   1.109       .  S
C3250      H3254   1.108       .  S
C3250      H3255   1.110       .  S
C3250      H3256   1.111       .  S
C3257      C3258   1.403       .  A
C3257      C3262   1.395       .  A
C3257      H3264   1.077       .  S
C3258      C3259   1.432       .  A
C3259      C3266   1.516       .  S
C3259      C3260   1.403       .  A
C3260      C3261   1.397       .  A
C3260      H3265   1.084       .  S
C3261      C3262   1.414       .  A
C3262      C3263   1.506       .  S
C3263      H3267   1.111       .  S
C3263      H3268   1.105       .  S
C3263      H4445   1.111       .  S
C3266      H3270   1.104       .  S
C3266      H3271   1.108       .  S
H3269      C4439   1.111   1_565  S
C3273      C3274   1.399       .  A
C3273      C3278   1.406       .  A
C3273      H3280   1.085       .  S
C3274      C3275   1.412       .  A
C3275      C3282   1.504       .  S
C3275      C3276   1.403       .  A
C3276      C3277   1.406       .  A
C3276      H3281   1.084       .  S
C3277      C3278   1.426       .  A
C3278      C3279   1.509       .  S
C3279      H3283   1.111       .  S
C3279      H3284   1.110       .  S
C3279      H3285   1.108       .  S
C3282      H3286   1.110       .  S
C3282      H3287   1.110       .  S
C3282      H3288   1.110       .  S
C3289      C3290   1.410       .  A
C3289      C3294   1.395       .  A
C3289      H3296   1.081       .  S
C3290      C3291   1.417       .  A
C3291      C3298   1.508       .  S
C3291      C3292   1.402       .  A
C3292      C3293   1.406       .  A
C3292      H3297   1.085       .  S
C3293      C3294   1.400       .  A
C3294      C3295   1.500       .  S
C3295      H3300   1.106       .  S
C3295      H3301   1.108       .  S
C3298      H3302   1.109       .  S
C3298      H3303   1.110       .  S
C3298      H3304   1.111       .  S
C3305      C3306   1.414       .  A
C3305      C3310   1.398       .  A
C3305      H3312   1.084       .  S
C3306      C3307   1.416       .  A
C3307      C3314   1.504       .  S
C3307      C3308   1.405       .  A
C3308      C3309   1.409       .  A
C3308      H3313   1.084       .  S
C3309      C3310   1.412       .  A
C3310      C3311   1.509       .  S
C3311      H3315   1.111       .  S
C3311      H3316   1.109       .  S
C3311      H3317   1.111       .  S
C3314      H3318   1.109       .  S
C3314      H3319   1.110       .  S
C3314      H3320   1.112       .  S
C3321      C3322   1.411       .  A
C3321      C3326   1.402       .  A
C3321      H3328   1.083       .  S
C3322      C3323   1.422       .  A
C3323      C4506   1.508       .  S
C3323      C3324   1.407       .  A
C3324      C3325   1.404       .  A
C3324      H3329   1.085       .  S
C3325      C3326   1.406       .  A
C3326      C3327   1.506       .  S
C3327      H3331   1.111       .  S
C3327      H3332   1.108       .  S
C3327      H3333   1.110       .  S
C3330      C4499   1.508   1_545  S
C3330      H3334   1.108       .  S
C3330      H3335   1.110       .  S
C3330      H3336   1.111       .  S
C3337      C3338   1.414       .  A
C3337      C3342   1.394       .  A
C3337      H3344   1.081       .  S
C3338      C3339   1.431       .  A
C3339      C3346   1.507       .  S
C3339      C3340   1.409       .  A
C3340      C3341   1.399       .  A
C3340      H3345   1.084       .  S
C3341      C3342   1.411       .  A
C3342      C3343   1.513       .  S
C3343      H3347   1.111       .  S
C3343      H3348   1.111       .  S
C3343      H3349   1.108       .  S
C3346      H3350   1.110       .  S
C3346      H3351   1.106       .  S
C3346      H3352   1.111       .  S
C3353      C3354   1.408       .  A
C3353      C3358   1.407       .  A
C3353      H3360   1.084       .  S
C3354      C3355   1.415       .  A
C3355      C3362   1.506       .  S
C3355      C3356   1.416       .  A
C3356      C3357   1.411       .  A
C3356      H3361   1.084       .  S
C3357      C3358   1.415       .  A
C3358      C3359   1.508       .  S
C3359      H3363   1.111       .  S
C3359      H3364   1.107       .  S
C3359      H3365   1.110       .  S
C3362      H3366   1.110       .  S
C3362      H3367   1.110       .  S
C3362      H3368   1.111       .  S
C3369      C3370   1.410       .  A
C3369      C3374   1.417       .  A
C3369      H3376   1.084       .  S
C3370      C3371   1.417       .  A
C3371      C3378   1.509       .  S
C3371      C3372   1.409       .  A
C3372      C3373   1.410       .  A
C3372      H3377   1.084       .  S
C3373      C3374   1.419       .  A
C3374      C3375   1.507       .  S
C3375      H3379   1.111       .  S
C3375      H3380   1.108       .  S
C3375      H3381   1.110       .  S
C3378      H3382   1.111       .  S
C3378      H3383   1.109       .  S
C3378      H3384   1.111       .  S
C3385      C3386   1.405       .  A
C3385      C3390   1.394       .  A
C3385      H3392   1.083       .  S
C3386      C3387   1.419       .  A
C3387      C3394   1.500       .  S
C3387      C3388   1.404       .  A
C3388      C3389   1.399       .  A
C3388      H3393   1.085       .  S
C3389      C3390   1.411       .  A
C3390      C3391   1.505       .  S
C3391      H3395   1.111       .  S
C3391      H4572   1.110       .  S
C3391      H4573   1.103       .  S
C3394      H3398   1.109       .  S
C3394      H3399   1.107       .  S
C3394      H3400   1.111       .  S
H3396      C4567   1.110       .  S
H3397      C4567   1.103       .  S
C3401      C3402   1.405       .  A
C3401      C3406   1.400       .  A
C3401      H3408   1.084       .  S
C3402      C3403   1.415       .  A
C3403      C3410   1.511       .  S
C3403      C3404   1.396       .  A
C3404      C3405   1.400       .  A
C3404      H3409   1.084       .  S
C3405      C3406   1.408       .  A
C3406      C3407   1.506       .  S
C3407      H3411   1.111       .  S
C3407      H3412   1.110       .  S
C3407      H3413   1.111       .  S
C3410      H3414   1.104       .  S
C3410      H3415   1.110       .  S
C3410      H3416   1.111       .  S
C3417      C3418   1.402       .  A
C3417      C3422   1.405       .  A
C3417      H3424   1.085       .  S
C3418      C3419   1.408       .  A
C3419      C3426   1.506       .  S
C3419      C3420   1.401       .  A
C3420      C3421   1.409       .  A
C3420      H3425   1.084       .  S
C3421      C3422   1.419       .  A
C3422      C3423   1.505       .  S
C3423      H3427   1.111       .  S
C3423      H3428   1.110       .  S
C3423      H3429   1.106       .  S
C3426      H3430   1.110       .  S
C3426      H3431   1.108       .  S
C3426      H3432   1.111       .  S
C3433      C3434   1.401       .  A
C3433      C3438   1.406       .  A
C3433      H3440   1.085       .  S
C3434      C3435   1.412       .  A
C3435      C3442   1.508       .  S
C3435      C3436   1.398       .  A
C3436      C3437   1.406       .  A
C3436      H3441   1.083       .  S
C3437      C3438   1.418       .  A
C3438      C3439   1.500       .  S
C3439      H3443   1.111       .  S
C3439      H3444   1.101       .  S
C3439      H3445   1.109       .  S
C3442      H3446   1.106       .  S
C3442      H3447   1.110       .  S
C3442      H3448   1.111       .  S
C3449      C3450   1.406       .  A
C3449      C3454   1.403       .  A
C3449      H3456   1.076       .  S
C3450      C3451   1.433       .  A
C3451      C3458   1.513       .  S
C3451      C3452   1.404       .  A
C3452      C3453   1.399       .  A
C3452      H3457   1.084   1_554  S
C3453      C3454   1.423       .  A
C3454      C3455   1.507       .  S
C3455      H3459   1.111       .  S
C3455      H3460   1.102       .  S
C3455      H3461   1.110   1_554  S
C3458      H3462   1.108       .  S
C3458      H3463   1.108       .  S
C3458      H3464   1.111       .  S
C3465      C3466   1.400       .  A
C3465      C3470   1.404       .  A
C3465      H3472   1.085       .  S
C3466      C3467   1.409       .  A
C3467      C3474   1.504       .  S
C3467      C3468   1.397       .  A
C3468      C3469   1.404       .  A
C3468      H3473   1.081       .  S
C3469      C3470   1.422       .  A
C3470      C3471   1.505       .  S
C3471      H3475   1.111       .  S
C3471      H3476   1.103       .  S
C3471      H3477   1.110       .  S
C3474      H3478   1.109       .  S
C3474      H3479   1.109       .  S
C3474      H3480   1.111       .  S
C3481      C3482   1.412       .  A
C3481      C3486   1.401       .  A
C3481      H3488   1.085       .  S
C3482      C3483   1.409       .  A
C3483      C3490   1.509   1_554  S
C3483      C3484   1.401       .  A
C3484      C3485   1.418       .  A
C3484      H3489   1.085       .  S
C3485      C3486   1.411       .  A
C3486      C3487   1.504       .  S
C3487      H3491   1.111       .  S
C3487      H3492   1.110       .  S
C3487      H3493   1.108       .  S
C3490      H3494   1.110       .  S
C3490      H3495   1.109       .  S
C3490      H3496   1.111   1_556  S
C3497      C3498   1.403       .  A
C3497      C3502   1.391       .  A
C3497      H3504   1.084       .  S
C3498      C3499   1.416       .  A
C3499      C3506   1.503       .  S
C3499      C3500   1.402       .  A
C3500      C3501   1.400       .  A
C3500      H3505   1.085       .  S
C3501      C3502   1.409       .  A
C3502      C3503   1.506       .  S
C3503      H3507   1.111       .  S
C3503      H3508   1.103       .  S
C3503      H3509   1.110       .  S
C3506      H3510   1.106       .  S
C3506      H3511   1.109       .  S
C3506      H3512   1.111       .  S
C3513      C3514   1.398       .  A
C3513      C3518   1.399       .  A
C3513      H3520   1.076       .  S
C3514      C3515   1.431       .  A
C3515      C3522   1.514       .  S
C3515      C3516   1.406       .  A
C3516      C3517   1.400       .  A
C3516      H3521   1.084   1_554  S
C3517      C3518   1.421       .  A
C3518      C3519   1.498       .  S
C3519      H3523   1.111       .  S
C3519      H3524   1.107       .  S
C3519      H3525   1.109       .  S
C3522      H3526   1.108       .  S
C3522      H3527   1.106       .  S
C3522      H3528   1.111       .  S
C3529      C3530   1.525       .  S
C3529      C3535   1.522       .  S
C3529      C3533   1.551       .  S
C3529      C4690   1.533       .  S
C3530      H3537   1.086       .  S
C3530      C3531   1.364       .  D
C3531      C3532   1.549       .  S
C3531      C3589   1.476       .  S
C3532      C3536   1.530       .  S
C3532      C3534   1.553       .  S
C3532      H3538   1.111       .  S
C3533      H3539   1.082       .  S
C3533      C3534   1.373       .  D
C3534      C3607   1.487       .  S
C3535      H3540   1.089       .  S
C3535      C3536   1.351       .  D
C3536      C4677   1.461       .  S
C3541      C3542   1.529       .  S
C3541      C3547   1.528       .  S
C3541      C3545   1.545       .  S
C3541      C4661   1.538       .  S
C3542      H3549   1.087       .  S
C3542      C3543   1.364       .  D
C3543      C3603   1.490       .  S
C3544      C3548   1.535   1_455  S
C3544      H3550   1.110   1_455  S
C3545      H3551   1.082       .  S
C3545      C3546   1.376       .  D
C3546      C3671   1.495       .  S
C3547      H3552   1.089       .  S
C3548      C4642   1.471       .  S
C3553      C3554   1.532       .  S
C3553      C3559   1.517       .  S
C3553      C3557   1.551       .  S
C3553      C4626   1.538       .  S
C3554      H3561   1.083       .  S
C3554      C3555   1.368       .  D
C3555      C3679   1.494       .  S
C3556      C3560   1.536       .  S
C3556      H3562   1.110       .  S
C3557      H3563   1.082       .  S
C3557      C3558   1.373       .  D
C3560      C4610   1.470       .  S
O3565      C3580   1.256       .  A
O3565     Al3573   1.862       .  S
C3566      O3576   1.255       .  A
C3566      O3567   1.269       .  A
C3566      C4658   1.486   1_556  S
O3567     Al3569   1.936       .  S
O3568      C3570   1.248       .  A
O3568     Al3569   1.854       .  S
Al3569     O3577   1.849       .  S
Al3569     O3579   1.932       .  S
Al3569     O3578   1.779       .  S
C3570      O3583   1.267       .  A
C3570      C4629   1.495   1_556  S
O3571      C3581   1.254       .  A
O3571     Al3573   1.873       .  S
O3572      C3585   1.258       .  A
O3572     Al3582   1.877       .  S
Al3573     O3586   1.938       .  S
Al3573     O3583   1.937       .  S
Al3573     O3578   1.775       .  S
O3574      C3581   1.266       .  A
O3574     Al3582   1.930       .  S
O3575      C3584   1.262       .  A
O3575     Al3582   1.917       .  S
O3576     Al3582   1.860       .  S
O3577      C3584   1.248       .  A
O3578     Al3582   1.782       .  S
O3579      C3580   1.267       .  A
C3580      C4562   1.483       .  S
C3581      C4693   1.492   1_556  S
C3584      C4578   1.466       .  S
C3585      O3586   1.268       .  A
C3585      C4597   1.492       .  S
C3587      C4546   1.505       .  S
C3587      N3588   1.368       .  A
C3587      N3592   1.369       .  A
N3588      C3589   1.363       .  A
C3589      N3590   1.354       .  A
N3590      C3591   1.352       .  A
C3591      C3625   1.483       .  S
C3591      N3592   1.363       .  A
C3593      C4549   1.508       .  S
C3593      N3594   1.356       .  A
C3593      N3598   1.363       .  A
C3595      C3637   1.507       .  S
C3595      N3596   1.366       .  A
C3597      N3598   1.368       .  A
C3599      C4530   1.501       .  S
C3599      N3600   1.352   1_655  A
C3599      N3604   1.363       .  A
C3601      C3640   1.504       .  S
C3601      N3602   1.364       .  A
N3602      C3603   1.377       .  A
C3605      C4533   1.500       .  S
C3605      N3606   1.363       .  A
C3605      N3610   1.370       .  A
N3606      C3607   1.359       .  A
C3607      N3608   1.359       .  A
N3608      C3609   1.362       .  A
C3609      C3616   1.492       .  S
C3609      N3610   1.364       .  A
C3611      C3612   1.542       .  S
C3611      C3617   1.518       .  S
C3611      C3615   1.531       .  S
C3611      C4514   1.536       .  S
C3612      H3619   1.086       .  S
C3612      C3613   1.366       .  D
C3613      C3614   1.561       .  S
C3613      C3677   1.495       .  S
C3614      C3618   1.541       .  S
C3614      C3616   1.569       .  S
C3614      H3620   1.110       .  S
C3615      H3621   1.079       .  S
C3615      C3616   1.370       .  D
C3617      H3622   1.089       .  S
C3617      C3618   1.351       .  D
C3618      C4501   1.475       .  S
C3623      C3624   1.544       .  S
C3623      C3629   1.526       .  S
C3623      C3627   1.525       .  S
C3623      C4482   1.538       .  S
C3624      H3631   1.079       .  S
C3624      C3625   1.374       .  D
C3625      C3626   1.550       .  S
C3626      C3630   1.535       .  S
C3626      C3628   1.563       .  S
C3626      H3632   1.111       .  S
C3627      H3633   1.087       .  S
C3627      C3628   1.365       .  D
C3628      C3673   1.491       .  S
C3629      H3634   1.089       .  S
C3629      C3630   1.353       .  D
C3630      C4469   1.471       .  S
C3635      C3636   1.538       .  S
C3635      C3641   1.512       .  S
C3635      C3639   1.511       .  S
C3635      C4434   1.530       .  S
C3636      H3643   1.081       .  S
C3636      C3637   1.377       .  D
C3637      C3638   1.567       .  S
C3638      C3642   1.550       .  S
C3638      C3640   1.572       .  S
C3638      H3644   1.110       .  S
C3639      H3645   1.086       .  S
C3639      C3640   1.366       .  D
C3641      H3646   1.088       .  S
C3641      C3642   1.356       .  D
C3642      C4450   1.473       .  S
O3647      C3662   1.266       .  A
O3647     Al3655   1.929       .  S
C3648      O3658   1.263       .  A
C3648      O3649   1.257       .  A
C3648      C4485   1.483       .  S
O3649     Al3651   1.880       .  S
O3650      C3652   1.266       .  A
O3650     Al3651   1.937       .  S
Al3651     O3659   1.935       .  S
Al3651     O3661   1.876       .  S
Al3651     O3660   1.778       .  S
C3652      O3665   1.248       .  A
C3652      C4517   1.476       .  S
O3653      C3663   1.269       .  A
O3653     Al3655   1.937       .  S
O3654      C3667   1.266       .  A
O3654     Al3664   1.937       .  S
Al3655     O3668   1.854       .  S
Al3655     O3665   1.842       .  S
Al3655     O3660   1.773       .  S
O3656      C3663   1.252       .  A
O3656     Al3664   1.870       .  S
O3657      C3666   1.252       .  A
O3657     Al3664   1.857       .  S
O3658     Al3664   1.915       .  S
O3659      C3666   1.268       .  A
O3660     Al3664   1.777       .  S
O3661      C3662   1.259       .  A
C3662      C4418   1.492       .  S
C3663      C4453   1.496       .  S
C3666      C4402   1.474       .  S
C3667      O3668   1.252       .  A
C3667      C4389   1.487       .  S
C3669      C4373   1.507       .  S
C3669      N3670   1.369       .  A
C3671      N3672   1.357       .  A
N3672      C3673   1.361       .  A
C3673      N3674   1.364       .  A
C3675      C4370   1.507       .  S
C3675      N3676   1.371       .  A
C3675      N3680   1.369       .  A
C3677      N3678   1.361       .  A
N3678      C3679   1.361       .  A
C3681      C3682   1.543       .  S
C3681      C3687   1.519       .  S
C3681      C3685   1.529       .  S
C3681      C4354   1.533       .  S
C3682      H3689   1.085       .  S
C3682      C3683   1.373       .  D
C3683      C3684   1.563       .  S
C3683      C3759   1.487       .  S
C3684      C3688   1.535       .  S
C3684      C3686   1.557       .  S
C3684      H3690   1.110       .  S
C3685      H3691   1.081       .  S
C3685      C3686   1.367       .  D
C3686      C3765   1.488       .  S
C3687      H3692   1.090       .  S
C3687      C3688   1.348       .  D
C3688      C4338   1.474       .  S
C3693      C3694   1.526       .  S
C3693      C3699   1.515       .  S
C3693      C3697   1.517       .  S
C3693      C4309   1.536       .  S
C3694      H3701   1.081       .  S
C3694      C3695   1.375       .  D
C3695      C3696   1.567       .  S
C3696      C3700   1.552       .  S
C3696      C3698   1.561       .  S
C3696      H3702   1.110       .  S
C3697      H3703   1.087       .  S
C3697      C3698   1.372       .  D
C3698      C3749   1.502       .  S
C3699      H3704   1.088       .  S
C3699      C3700   1.361       .  D
C3700      C4322   1.473       .  S
C3705      C3706   1.519       .  S
C3705      C3711   1.529       .  S
C3705      C3709   1.548       .  S
C3705      C4290   1.533       .  S
C3706      H3713   1.088       .  S
C3706      C3707   1.361       .  D
C3707      C3708   1.568       .  S
C3707      C3773   1.496       .  S
C3708      C3712   1.546       .  S
C3708      C3710   1.573       .  S
C3708      H3714   1.110       .  S
C3709      H3715   1.082       .  S
C3709      C3710   1.376       .  D
C3710      C3741   1.506       .  S
C3711      H3716   1.089       .  S
C3711      C3712   1.350       .  D
C3712      C4274   1.485       .  S
O3717      C3732   1.266       .  A
O3717     Al3725   1.896       .  S
C3718      O3728   1.249       .  A
C3718      O3719   1.259   1_655  A
C3718      C4357   1.485       .  S
O3720      C3722   1.252       .  A
Al3721     O3729   1.869       .  S
C3722      O3735   1.258       .  A
C3722      C4293   1.480       .  S
O3723     Al3725   1.879       .  S
O3724      C3737   1.248       .  A
Al3725     O3735   1.910       .  S
Al3725     O3730   1.785       .  S
O3726      C3733   1.273       .  A
O3727      C3736   1.267       .  A
O3727     Al3734   1.929       .  S
O3728     Al3734   1.836       .  S
O3731      C3732   1.270       .  A
C3732      C4229   1.490       .  S
C3733      C4325   1.496       .  S
C3736      C4258   1.489       .  S
C3737      O3738   1.257       .  A
C3737      C4245   1.469       .  S
C3739      C4210   1.494       .  S
C3739      N3740   1.365       .  A
N3740      C3741   1.373       .  A
C3741      N3742   1.385       .  A
C3743      C3777   1.507       .  S
C3743      N3744   1.348       .  A
C3745      C4213   1.494       .  S
C3745      N3746   1.364       .  A
N3746      C3747   1.369       .  A
C3747      C3801   1.498       .  S
C3747      N3748   1.380   1_565  A
C3749      N3750   1.352       .  A
C3751      C4194   1.498       .  S
C3751      N3752   1.347       .  A
C3751      N3756   1.364       .  A
N3752      C3753   1.353       .  A
C3753      N3754   1.365       .  A
N3754      C3755   1.377       .  A
C3755      C3792   1.490       .  S
C3755      N3756   1.368       .  A
C3757      C4197   1.494       .  S
C3757      N3758   1.360       .  A
N3758      C3759   1.368       .  A
C3759      N3760   1.378   1_655  A
C3761      C3780   1.500       .  S
C3761      N3762   1.351       .  A
C3763      C4178   1.503       .  S
C3763      N3764   1.370       .  A
C3763      N3768   1.370       .  A
N3764      C3765   1.364       .  A
C3765      N3766   1.355       .  A
N3766      C3767   1.355       .  A
C3767      C3804   1.490       .  S
C3767      N3768   1.364       .  A
C3769      C4181   1.502       .  S
C3769      N3770   1.368       .  A
C3769      N3774   1.369       .  A
N3770      C3771   1.363       .  A
C3771      C3789   1.491       .  S
C3771      N3772   1.359       .  A
N3772      C3773   1.360       .  A
C3773      N3774   1.364       .  A
C3775      C3776   1.517       .  S
C3775      C3781   1.504       .  S
C3775      C3779   1.520       .  S
C3775      C4386   1.536       .  S
C3776      H3783   1.080       .  S
C3776      C3777   1.380       .  D
C3777      C3778   1.566       .  S
C3778      C3782   1.548       .  S
C3778      C3780   1.569       .  S
C3778      H3784   1.110       .  S
C3779      H3785   1.083       .  S
C3779      C3780   1.377       .  D
C3781      H3786   1.090       .  S
C3781      C3782   1.352       .  D
C3782      C4162   1.470       .  S
C3787      C3788   1.541       .  S
C3787      C3793   1.516       .  S
C3787      C3791   1.527       .  S
C3787      C4146   1.526       .  S
C3788      H3795   1.084       .  S
C3788      C3789   1.372       .  D
C3789      C3790   1.564       .  S
C3790      C3794   1.542       .  S
C3790      C3792   1.566       .  S
C3790      H3796   1.110       .  S
C3791      H3797   1.087       .  S
C3791      C3792   1.363       .  D
C3793      H3798   1.088       .  S
C3793      C3794   1.350       .  D
C3794      C4405   1.475       .  S
C3799      C3800   1.548       .  S
C3799      C3805   1.518       .  S
C3799      C3803   1.526       .  S
C3799      C4133   1.533       .  S
C3800      H3807   1.083       .  S
C3800      C3801   1.373       .  D
C3801      C3802   1.570       .  S
C3802      C3806   1.541       .  S
C3802      C3804   1.561       .  S
C3802      H3808   1.110       .  S
C3803      H3809   1.084       .  S
C3803      C3804   1.365       .  D
C3805      H3810   1.090       .  S
C3805      C3806   1.347       .  D
C3806      C4421   1.476       .  S
O3811      C3826   1.265       .  A
O3811     Al3819   1.927       .  S
C3812      O3822   1.267       .  A
C3812      O3813   1.252   1_565  A
C3812      C4130   1.489       .  S
O3814      C3816   1.267       .  A
C3816      O3829   1.257       .  A
C3816      C4149   1.488       .  S
O3817      C3827   1.267       .  A
O3818      C3831   1.265       .  A
Al3819     O3829   1.874       .  S
O3820      C3827   1.260       .  A
O3821      C3830   1.260       .  A
O3821     Al3828   1.887       .  S
O3822     Al3828   1.925       .  S
O3823      C3830   1.266       .  A
O3825      C3826   1.255       .  A
C3826      C4466   1.484       .  S
C3827      C4165   1.496       .  S
C3830      C4498   1.497       .  S
C3831      O3832   1.256       .  A
C3831      C4437   1.473       .  S
C3833      C3834   1.534       .  S
C3833      C3839   1.518       .  S
C3833      C3837   1.539       .  S
C3833      C4117   1.539       .  S
C3834      H3841   1.081       .  S
C3834      C3835   1.368       .  D
C3835      C3836   1.563       .  S
C3835      C3913   1.498       .  S
C3836      C3840   1.539       .  S
C3836      C3838   1.570       .  S
C3836      H3842   1.110       .  S
C3837      H3843   1.085       .  S
C3837      C3838   1.373       .  D
C3838      C3901   1.497       .  S
C3839      H3844   1.089       .  S
C3839      C3840   1.350       .  D
C3840      C4261   1.473       .  S
C3845      C3846   1.538       .  S
C3845      C3851   1.518       .  S
C3845      C3849   1.539       .  S
C3845      C4098   1.540       .  S
C3846      H3853   1.081       .  S
C3846      C3847   1.372       .  D
C3847      C3848   1.561       .  S
C3847      C3919   1.492       .  S
C3848      C3852   1.534       .  S
C3848      C3850   1.563       .  S
C3848      H3854   1.110       .  S
C3849      H3855   1.085       .  S
C3849      C3850   1.368       .  D
C3850      C3907   1.495       .  S
C3851      H3856   1.089       .  S
C3851      C3852   1.350       .  D
C3852      C4226   1.466       .  S
C3857      C3858   1.526       .  S
C3857      C3863   1.507       .  S
C3857      C3861   1.528       .  S
C3857      C4242   1.523       .  S
C3858      H3865   1.085       .  S
C3858      C3859   1.369       .  D
C3859      C3860   1.561       .  S
C3859      C3925   1.488       .  S
C3860      C3864   1.543       .  S
C3860      C3862   1.562       .  S
C3860      H3866   1.110       .  S
C3861      H3867   1.084       .  S
C3861      C3862   1.372       .  D
C3862      C3895   1.494       .  S
C3863      H3868   1.089       .  S
C3863      C3864   1.356       .  D
C3864      C4082   1.469       .  S
O3869      C3884   1.260       .  A
O3869     Al3877   1.909       .  S
C3870      O3880   1.260       .  A
C3870      O3871   1.256       .  A
C3870      C4101   1.490       .  S
O3871     Al3873   1.879       .  S
O3872      C3874   1.268       .  A
O3872     Al3873   1.945       .  S
Al3873     O3881   1.937       .  S
Al3873     O3883   1.881       .  S
Al3873     O3882   1.773       .  S
C3874      O3887   1.255       .  A
C3874      C4114   1.492       .  S
O3875      C3885   1.267       .  A
O3875     Al3877   1.930       .  S
O3876      C3889   1.264       .  A
O3876     Al3886   1.925       .  S
Al3877     O3890   1.879       .  S
Al3877     O3887   1.857       .  S
Al3877     O3882   1.775       .  S
O3878      C3885   1.259       .  A
O3878     Al3886   1.886       .  S
O3879      C3888   1.259       .  A
O3879     Al3886   1.882       .  S
O3880     Al3886   1.920       .  S
O3881      C3888   1.271       .  A
O3882     Al3886   1.780       .  S
O3883      C3884   1.258       .  A
C3884      C4341   1.489       .  S
C3885      C4085   1.496       .  S
C3888      C4277   1.487       .  S
C3889      O3890   1.255       .  A
C3889      C4306   1.484       .  S
C3891      C4066   1.508       .  S
C3891      N3892   1.367       .  A
C3891      N3896   1.348   1_565  A
C3893      C3941   1.496       .  S
C3893      N3894   1.373       .  A
N3894      C3895   1.363       .  A
C3897      C4069   1.508       .  S
C3897      N3898   1.364       .  A
C3897      N3902   1.375       .  A
N3898      C3899   1.359       .  A
C3899      C3932   1.482       .  S
C3899      N3900   1.358       .  A
N3900      C3901   1.359       .  A
C3901      N3902   1.368       .  A
C3903      C4053   1.531       .  S
C3903      N3904   1.375       .  A
C3903      N3908   1.375   1_565  A
C3905      C3944   1.493       .  S
C3905      N3906   1.356       .  A
N3906      C3907   1.356       .  A
C3909      C4050   1.529       .  S
C3909      N3910   1.375       .  A
C3909      N3914   1.372       .  A
C3911      N3912   1.359       .  A
N3912      C3913   1.357       .  A
C3915      C4037   1.498       .  S
C3915      N3916   1.362       .  A
C3915      N3920   1.370       .  A
N3916      C3917   1.357       .  A
C3917      C3929   1.482       .  S
C3917      N3918   1.360       .  A
N3918      C3919   1.360       .  A
C3919      N3920   1.365       .  A
C3921      C4034   1.500       .  S
C3921      N3922   1.367       .  A
C3921      N3926   1.352       .  A
N3922      C3923   1.370       .  A
C3923      C3956   1.488       .  S
N3924      C3925   1.358       .  A
C3927      C3928   1.537       .  S
C3927      C3933   1.533       .  S
C3927      C3931   1.530       .  S
C3927      C4018   1.532       .  S
C3928      H3935   1.082       .  S
C3928      C3929   1.369       .  D
C3929      C3930   1.557       .  S
C3930      C3934   1.537       .  S
C3930      C3932   1.554       .  S
C3930      H3936   1.111       .  S
C3931      H3937   1.087       .  S
C3931      C3932   1.366       .  D
C3933      H3938   1.088       .  S
C3933      C3934   1.350       .  D
C3934      C4594   1.474       .  S
C3939      C3940   1.549       .  S
C3939      C3945   1.527       .  S
C3939      C3943   1.531       .  S
C3939      C4002   1.542       .  S
C3940      H3947   1.079       .  S
C3940      C3941   1.376       .  D
C3942      C3946   1.532       .  S
C3942      H3948   1.110       .  S
C3943      H3949   1.087       .  S
C3943      C3944   1.366       .  D
C3945      H3950   1.089       .  S
C3946      C4565   1.466       .  S
C3951      C3952   1.548       .  S
C3951      C3955   1.529       .  S
C3951      C3986   1.542       .  S
C3952      H3959   1.081       .  S
C3953      C3954   1.557       .  S
C3954      C3958   1.527       .  S
C3954      C3956   1.567       .  S
C3954      H3960   1.110       .  S
C3955      H3961   1.083       .  S
C3957      H3962   1.089       .  S
C3957      C3958   1.350       .  D
C3958      C4581   1.461       .  S
O3963      C3978   1.262   1_556  A
O3963     Al3971   1.919       .  S
C3964      O3974   1.264       .  A
C3964      O3965   1.256       .  A
C3964      C4005   1.492       .  S
O3965     Al3967   1.879       .  S
O3966      C3968   1.271       .  A
O3966     Al3967   1.942       .  S
Al3967     O3975   1.940       .  S
Al3967     O3977   1.888       .  S
Al3967     O3976   1.773       .  S
C3968      O3981   1.253       .  A
C3968      C3989   1.494       .  S
O3969      C3979   1.262       .  A
O3969     Al3971   1.915       .  S
O3970      C3983   1.268   1_556  A
O3970     Al3980   1.936       .  S
Al3971     O3984   1.857       .  S
Al3971     O3981   1.858       .  S
Al3971     O3976   1.773       .  S
O3972      C3979   1.255       .  A
O3972     Al3980   1.877       .  S
O3973      C3982   1.256   1_556  A
O3973     Al3980   1.864       .  S
O3974     Al3980   1.922       .  S
O3975      C3982   1.268   1_556  A
O3976     Al3980   1.775       .  S
O3977      C3978   1.259   1_556  A
C3978      C4645   1.491       .  S
C3979      C4021   1.479       .  S
C3982      C4613   1.490       .  S
C3983      O3984   1.256   1_554  A
C3983      C4674   1.476       .  S
C3985      C3986   1.407       .  A
C3985      C3990   1.398       .  A
C3985      H3992   1.073       .  S
C3986      C3987   1.430       .  A
C3987      C3994   1.511       .  S
C3987      C3988   1.408       .  A
C3988      C3989   1.402       .  A
C3988      H3993   1.084       .  S
C3989      C3990   1.421       .  A
C3990      C3991   1.510       .  S
C3991      H3995   1.111       .  S
C3991      H3996   1.110       .  S
C3991      H3997   1.101       .  S
C3994      H3999   1.107       .  S
C3994      H4000   1.111       .  S
C4001      C4002   1.416       .  A
C4001      C4006   1.402       .  A
C4001      H4008   1.084       .  S
C4002      C4003   1.414       .  A
C4003      C4010   1.502       .  S
C4003      C4004   1.406       .  A
C4004      C4005   1.411       .  A
C4004      H4009   1.083       .  S
C4005      C4006   1.413       .  A
C4006      C4007   1.508       .  S
C4007      H4011   1.111       .  S
C4007      H4012   1.110       .  S
C4007      H4013   1.110       .  S
C4010      H4014   1.109       .  S
C4010      H4015   1.110       .  S
C4010      H4016   1.111       .  S
C4017      C4018   1.411       .  A
C4017      C4022   1.397       .  A
C4017      H4024   1.085       .  S
C4018      C4019   1.414       .  A
C4019      C4026   1.506       .  S
C4019      C4020   1.402       .  A
C4020      C4021   1.409       .  A
C4020      H4025   1.085       .  S
C4021      C4022   1.413       .  A
C4022      C4023   1.509       .  S
C4023      H4027   1.111       .  S
C4023      H4028   1.109       .  S
C4023      H4029   1.111       .  S
C4026      H4030   1.109       .  S
C4026      H4031   1.110       .  S
C4026      H4032   1.111       .  S
C4033      C4034   1.404       .  A
C4033      C4038   1.414       .  A
C4033      H4040   1.084       .  S
C4034      C4035   1.423       .  A
C4035      C4042   1.510       .  S
C4035      C4036   1.408       .  A
C4036      C4037   1.402       .  A
C4036      H4041   1.084       .  S
C4037      C4038   1.422       .  A
C4038      C4039   1.508       .  S
C4039      H4043   1.111       .  S
C4039      H4044   1.110       .  S
C4039      H4045   1.107       .  S
C4042      H4046   1.109       .  S
C4042      H4047   1.110       .  S
C4042      H4048   1.111       .  S
C4049      C4050   1.411       .  A
C4049      C4054   1.414       .  A
C4049      H4056   1.082       .  S
C4050      C4051   1.426       .  A
C4051      C4058   1.505       .  S
C4051      C4052   1.421       .  A
C4052      C4053   1.415       .  A
C4052      H4057   1.083       .  S
C4053      C4054   1.426       .  A
C4054      C4055   1.506       .  S
C4055      H4059   1.111       .  S
C4055      H4060   1.106       .  S
C4055      H4061   1.110       .  S
C4058      H4062   1.110       .  S
C4058      H4063   1.107       .  S
C4058      H4064   1.111       .  S
C4065      C4066   1.406       .  A
C4065      C4070   1.418       .  A
C4065      H4072   1.084       .  S
C4066      C4067   1.427       .  A
C4067      C4074   1.511       .  S
C4067      C4068   1.408       .  A
C4068      C4069   1.401       .  A
C4068      H4073   1.084       .  S
C4069      C4070   1.426       .  A
C4070      C4071   1.507       .  S
C4071      H4075   1.111       .  S
C4071      H4076   1.110       .  S
C4071      H4077   1.110       .  S
C4074      H4078   1.111       .  S
C4074      H4079   1.109       .  S
C4074      H4080   1.111       .  S
C4081      C4082   1.403       .  A
C4081      C4086   1.406       .  A
C4081      H4088   1.085       .  S
C4082      C4083   1.406       .  A
C4083      C4090   1.507       .  S
C4083      C4084   1.402       .  A
C4084      C4085   1.411       .  A
C4084      H4089   1.078       .  S
C4085      C4086   1.422       .  A
C4086      C4087   1.506       .  S
C4087      H4091   1.111       .  S
C4087      H4092   1.104       .  S
C4087      H4093   1.110       .  S
C4090      H4094   1.110       .  S
C4090      H4095   1.110       .  S
C4090      H4096   1.111       .  S
C4097      C4098   1.417       .  A
C4097      C4102   1.405       .  A
C4097      H4104   1.078       .  S
C4098      C4099   1.429       .  A
C4099      C4106   1.512       .  S
C4099      C4100   1.402       .  A
C4100      C4101   1.400       .  A
C4100      H4105   1.080       .  S
C4101      C4102   1.413       .  A
C4102      C4103   1.510       .  S
C4103      H4107   1.111       .  S
C4103      H4108   1.104       .  S
C4103      H4109   1.110       .  S
C4106      H4110   1.107       .  S
C4106      H4111   1.109       .  S
C4106      H4112   1.111       .  S
C4113      C4114   1.399       .  A
C4113      C4118   1.397       .  A
C4113      H4120   1.082       .  S
C4114      C4115   1.413       .  A
C4115      C4122   1.503       .  S
C4115      C4116   1.410       .  A
C4116      C4117   1.415       .  A
C4116      H4121   1.079       .  S
C4117      C4118   1.432       .  A
C4118      C4119   1.515       .  S
C4119      H4123   1.111       .  S
C4119      H4124   1.107       .  S
C4119      H4125   1.108       .  S
C4122      H4126   1.102       .  S
C4122      H4127   1.110       .  S
C4122      H4128   1.111       .  S
C4129      C4130   1.398       .  A
C4129      C4134   1.399       .  A
C4129      H4136   1.084       .  S
C4130      C4131   1.421       .  A
C4131      C4132   1.402       .  A
C4132      C4133   1.406       .  A
C4132      H4137   1.077   1_565  S
C4133      C4134   1.433       .  A
C4134      C4135   1.515       .  S
C4135      H4139   1.111       .  S
C4135      H4140   1.107       .  S
C4135      H4141   1.107       .  S
C4138      H4143   1.103       .  S
C4138      H4144   1.111       .  S
C4145      C4146   1.393       .  A
C4145      C4150   1.394       .  A
C4145      H4152   1.080       .  S
C4146      C4147   1.431       .  A
C4147      C4154   1.511       .  S
C4147      C4148   1.401       .  A
C4148      C4149   1.399       .  A
C4148      H4153   1.084       .  S
C4149      C4150   1.420       .  A
C4150      C4151   1.491       .  S
C4151      H4155   1.111       .  S
C4151      H4156   1.108       .  S
C4151      H4157   1.108       .  S
C4154      H4158   1.110       .  S
C4154      H4159   1.104       .  S
C4154      H4160   1.110       .  S
C4161      C4162   1.400       .  A
C4161      C4166   1.410       .  A
C4161      H4168   1.084       .  S
C4162      C4163   1.410       .  A
C4163      C4170   1.507       .  S
C4163      C4164   1.394       .  A
C4164      C4165   1.406       .  A
C4164      H4169   1.084       .  S
C4165      C4166   1.424       .  A
C4167      H4171   1.111       .  S
C4167      H4172   1.110       .  S
C4167      H4173   1.105       .  S
C4170      H4174   1.110       .  S
C4170      H4175   1.110       .  S
C4177      C4178   1.406       .  A
C4177      C4182   1.414       .  A
C4177      H4184   1.084       .  S
C4178      C4179   1.419       .  A
C4179      C4186   1.507       .  S
C4179      C4180   1.415       .  A
C4180      C4181   1.407       .  A
C4180      H4185   1.084       .  S
C4181      C4182   1.418       .  A
C4182      C4183   1.507       .  S
C4183      H4187   1.111       .  S
C4183      H4188   1.110       .  S
C4183      H4189   1.107       .  S
C4186      H4190   1.107       .  S
C4186      H4191   1.110       .  S
C4186      H4192   1.111       .  S
C4193      C4198   1.408       .  A
C4193      H4200   1.083       .  S
C4194      C4195   1.413       .  A
C4195      C4202   1.506       .  S
C4195      C4196   1.407       .  A
C4196      H4201   1.084       .  S
C4197      C4198   1.412       .  A
C4198      C4199   1.508       .  S
C4199      H4203   1.111       .  S
C4199      H4204   1.110       .  S
C4199      H4205   1.110       .  S
C4202      H4206   1.110       .  S
C4202      H4207   1.109       .  S
C4202      H4208   1.111       .  S
C4209      C4214   1.406       .  A
C4209      H4216   1.083       .  S
C4210      C4211   1.410       .  A
C4211      C4218   1.502       .  S
C4211      C4212   1.409       .  A
C4212      H4217   1.084       .  S
C4213      C4214   1.411       .  A
C4214      C4215   1.506       .  S
C4215      H4219   1.111       .  S
C4215      H4220   1.109       .  S
C4215      H4221   1.110       .  S
C4218      H4222   1.111       .  S
C4218      H4223   1.108       .  S
C4218      H4224   1.111       .  S
C4225      C4226   1.394       .  A
C4225      C4230   1.399       .  A
C4225      H4232   1.081       .  S
C4226      C4227   1.409       .  A
C4227      C4234   1.507       .  S
C4227      C4228   1.404       .  A
C4228      C4229   1.409       .  A
C4228      H4233   1.084       .  S
C4229      C4230   1.423       .  A
C4230      C4231   1.506       .  S
C4231      H4235   1.110       .  S
C4231      H4236   1.109       .  S
C4231      H4237   1.102       .  S
C4234      H4238   1.110       .  S
C4234      H4239   1.110       .  S
C4234      H4240   1.111       .  S
C4241      C4242   1.410       .  A
C4241      C4246   1.397       .  A
C4241      H4248   1.081       .  S
C4242      C4243   1.426       .  A
C4243      C4250   1.511       .  S
C4243      C4244   1.397       .  A
C4244      C4245   1.399       .  A
C4244      H4249   1.085   1_655  S
C4245      C4246   1.411       .  A
C4247      H4251   1.111       .  S
C4247      H4252   1.104       .  S
C4247      H4253   1.111   1_565  S
C4250      H4254   1.110   1_655  S
C4250      H4255   1.105       .  S
C4250      H4256   1.111       .  S
C4257      C4258   1.404       .  A
C4257      C4262   1.396       .  A
C4257      H4264   1.084   1_655  S
C4258      C4259   1.419       .  A
C4259      C4266   1.503       .  S
C4259      C4260   1.408       .  A
C4260      C4261   1.401       .  A
C4260      H4265   1.085       .  S
C4261      C4262   1.413       .  A
C4262      C4263   1.504   1_655  S
C4263      H4267   1.111       .  S
C4263      H4268   1.110       .  S
C4263      H4269   1.103   1_455  S
C4266      H4270   1.109       .  S
C4266      H4271   1.110       .  S
C4266      H4272   1.111       .  S
C4273      C4274   1.404       .  A
C4273      C4278   1.405       .  A
C4273      H4280   1.083       .  S
C4274      C4275   1.412       .  A
C4275      C4282   1.499       .  S
C4275      C4276   1.403       .  A
C4276      C4277   1.405       .  A
C4276      H4281   1.085       .  S
C4277      C4278   1.418       .  A
C4278      C4279   1.508       .  S
C4279      H4283   1.111       .  S
C4279      H4284   1.110       .  S
C4279      H4285   1.110       .  S
C4282      H4286   1.111       .  S
C4282      H4287   1.101       .  S
C4282      H4288   1.110       .  S
C4289      C4290   1.416       .  A
C4289      C4294   1.399       .  A
C4289      H4296   1.084       .  S
C4290      C4291   1.410       .  A
C4291      C4298   1.504       .  S
C4291      C4292   1.402       .  A
C4292      C4293   1.410       .  A
C4292      H4297   1.081       .  S
C4293      C4294   1.409       .  A
C4294      C4295   1.508       .  S
C4295      H4299   1.111       .  S
C4295      H4300   1.110       .  S
C4295      H4301   1.110       .  S
C4298      H4302   1.110       .  S
C4298      H4303   1.108       .  S
C4305      C4306   1.399       .  A
C4305      C4310   1.402       .  A
C4305      H4312   1.085       .  S
C4306      C4307   1.417       .  A
C4307      C4314   1.508       .  S
C4307      C4308   1.401       .  A
C4308      C4309   1.408       .  A
C4308      H4313   1.078       .  S
C4309      C4310   1.428       .  A
C4310      C4311   1.512       .  S
C4311      H4315   1.111       .  S
C4311      H4316   1.110       .  S
C4311      H4317   1.103       .  S
C4314      H4318   1.103       .  S
C4314      H4319   1.111       .  S
C4314      H4320   1.111       .  S
C4321      C4322   1.404       .  A
C4321      C4326   1.406       .  A
C4321      H4328   1.085       .  S
C4322      C4323   1.406       .  A
C4323      C4330   1.505   1_655  S
C4323      C4324   1.402       .  A
C4324      C4325   1.413       .  A
C4324      H4329   1.084   1_655  S
C4325      C4326   1.421       .  A
C4326      C4327   1.507       .  S
C4327      H4331   1.111       .  S
C4330      H4334   1.111       .  S
C4330      H4335   1.111       .  S
C4330      H4336   1.110       .  S
C4337      C4338   1.404       .  A
C4337      C4342   1.402       .  A
C4337      H4344   1.085       .  S
C4338      C4339   1.405       .  A
C4339      C4346   1.503       .  S
C4339      C4340   1.401       .  A
C4340      C4341   1.411       .  A
C4340      H4345   1.083       .  S
C4341      C4342   1.422       .  A
C4342      C4343   1.512       .  S
C4343      H4347   1.111       .  S
C4343      H4348   1.106       .  S
C4343      H4349   1.110       .  S
C4346      H4350   1.108       .  S
C4346      H4351   1.110       .  S
C4346      H4352   1.111       .  S
C4353      C4354   1.417       .  A
C4353      C4358   1.409       .  A
C4353      H4360   1.080   1_655  S
C4354      C4355   1.431       .  A
C4355      C4362   1.514       .  S
C4355      C4356   1.393       .  A
C4356      C4357   1.399       .  A
C4356      H4361   1.083       .  S
C4357      C4358   1.413       .  A
C4359      H4363   1.111       .  S
C4359      H4364   1.110       .  S
C4359      H4365   1.104       .  S
C4362      H4366   1.109       .  S
C4362      H4367   1.107       .  S
C4362      H4368   1.111       .  S
C4369      C4370   1.407       .  A
C4369      C4374   1.413       .  A
C4369      H4376   1.084       .  S
C4370      C4371   1.421       .  A
C4371      C4378   1.507       .  S
C4371      C4372   1.416       .  A
C4372      C4373   1.408       .  A
C4372      H4377   1.084       .  S
C4373      C4374   1.419       .  A
C4374      C4375   1.507       .  S
C4375      H4379   1.111       .  S
C4375      H4380   1.102   1_655  S
C4375      H4381   1.110       .  S
C4378      H4382   1.110       .  S
C4378      H4383   1.110       .  S
C4378      H4384   1.111       .  S
C4385      C4386   1.413       .  A
C4385      C4390   1.400       .  A
C4385      H4392   1.078       .  S
C4386      C4387   1.430       .  A
C4387      C4394   1.510       .  S
C4387      C4388   1.400       .  A
C4388      C4389   1.401       .  A
C4388      H4393   1.083       .  S
C4389      C4390   1.411       .  A
C4390      C4391   1.499       .  S
C4391      H4395   1.111       .  S
C4391      H4396   1.100       .  S
C4391      H4397   1.109       .  S
C4394      H4398   1.106       .  S
C4394      H4399   1.107       .  S
C4394      H4400   1.111       .  S
C4401      C4402   1.404       .  A
C4401      C4406   1.404       .  A
C4401      H4408   1.084       .  S
C4402      C4403   1.415       .  A
C4403      C4410   1.513       .  S
C4403      C4404   1.400       .  A
C4404      C4405   1.406       .  A
C4404      H4409   1.085       .  S
C4405      C4406   1.411       .  A
C4406      C4407   1.503       .  S
C4407      H4411   1.111       .  S
C4407      H4412   1.109       .  S
C4407      H4413   1.108       .  S
C4410      H4414   1.110       .  S
C4410      H4415   1.102       .  S
C4410      H4416   1.111       .  S
C4417      C4418   1.409       .  A
C4417      C4422   1.400       .  A
C4417      H4424   1.083       .  S
C4418      C4419   1.420       .  A
C4419      C4426   1.507       .  S
C4419      C4420   1.405       .  A
C4420      C4421   1.404       .  A
C4420      H4425   1.084       .  S
C4421      C4422   1.409       .  A
C4422      C4423   1.504       .  S
C4423      H4427   1.111       .  S
C4423      H4428   1.109       .  S
C4423      H4429   1.109       .  S
C4426      H4430   1.108       .  S
C4426      H4431   1.110       .  S
C4426      H4432   1.111       .  S
C4433      C4434   1.403       .  A
C4433      C4438   1.395       .  A
C4433      H4440   1.077       .  S
C4434      C4435   1.432       .  A
C4435      C4442   1.516       .  S
C4435      C4436   1.403       .  A
C4436      C4437   1.397       .  A
C4436      H4441   1.084       .  S
C4437      C4438   1.414       .  A
C4438      C4439   1.506   1_565  S
C4439      H4443   1.111       .  S
C4439      H4444   1.106       .  S
C4442      H4446   1.104       .  S
C4442      H4447   1.108       .  S
C4449      C4450   1.398       .  A
C4449      C4454   1.406       .  A
C4449      H4456   1.085       .  S
C4450      C4451   1.412       .  A
C4451      C4458   1.504       .  S
C4451      C4452   1.403       .  A
C4452      C4453   1.406       .  A
C4452      H4457   1.083       .  S
C4453      C4454   1.427       .  A
C4454      C4455   1.508       .  S
C4455      H4459   1.111       .  S
C4455      H4460   1.110       .  S
C4455      H4461   1.108       .  S
C4458      H4462   1.110       .  S
C4458      H4463   1.110       .  S
C4458      H4464   1.110       .  S
C4465      C4466   1.410       .  A
C4465      C4470   1.395       .  A
C4465      H4472   1.081       .  S
C4466      C4467   1.417       .  A
C4467      C4474   1.508       .  S
C4467      C4468   1.403       .  A
C4468      C4469   1.406       .  A
C4468      H4473   1.085       .  S
C4469      C4470   1.401       .  A
C4470      C4471   1.501       .  S
C4471      H4476   1.106       .  S
C4471      H4477   1.109       .  S
C4474      H4478   1.109       .  S
C4474      H4479   1.110       .  S
C4474      H4480   1.111       .  S
C4481      C4482   1.414       .  A
C4481      C4486   1.398       .  A
C4481      H4488   1.084       .  S
C4482      C4483   1.417       .  A
C4483      C4490   1.504       .  S
C4483      C4484   1.405       .  A
C4484      C4485   1.409       .  A
C4484      H4489   1.084       .  S
C4485      C4486   1.411       .  A
C4486      C4487   1.509       .  S
C4487      H4491   1.111       .  S
C4487      H4492   1.109       .  S
C4487      H4493   1.111       .  S
C4490      H4494   1.109       .  S
C4490      H4495   1.110       .  S
C4490      H4496   1.112       .  S
C4497      C4498   1.411       .  A
C4497      C4502   1.402       .  A
C4497      H4504   1.083       .  S
C4498      C4499   1.422       .  A
C4499      C4500   1.408       .  A
C4500      C4501   1.403       .  A
C4500      H4505   1.085       .  S
C4501      C4502   1.407       .  A
C4502      C4503   1.506       .  S
C4503      H4507   1.111       .  S
C4503      H4508   1.107       .  S
C4503      H4509   1.110       .  S
C4506      H4510   1.108       .  S
C4506      H4511   1.110       .  S
C4506      H4512   1.111       .  S
C4513      C4514   1.413       .  A
C4513      C4518   1.393       .  A
C4513      H4520   1.081       .  S
C4514      C4515   1.431       .  A
C4515      C4522   1.507       .  S
C4515      C4516   1.408       .  A
C4516      C4517   1.399       .  A
C4516      H4521   1.084       .  S
C4517      C4518   1.411       .  A
C4518      C4519   1.513       .  S
C4519      H4523   1.111       .  S
C4519      H4524   1.111       .  S
C4519      H4525   1.107       .  S
C4522      H4526   1.110       .  S
C4522      H4527   1.106       .  S
C4522      H4528   1.111       .  S
C4529      C4530   1.409       .  A
C4529      C4534   1.408       .  A
C4529      H4536   1.084       .  S
C4530      C4531   1.415       .  A
C4531      C4538   1.506       .  S
C4531      C4532   1.416       .  A
C4532      C4533   1.411       .  A
C4532      H4537   1.084       .  S
C4533      C4534   1.416       .  A
C4534      C4535   1.508       .  S
C4535      H4539   1.111       .  S
C4535      H4540   1.106       .  S
C4535      H4541   1.110       .  S
C4538      H4542   1.110       .  S
C4538      H4543   1.110       .  S
C4538      H4544   1.111       .  S
C4545      C4546   1.410       .  A
C4545      C4550   1.417       .  A
C4545      H4552   1.084       .  S
C4546      C4547   1.418       .  A
C4547      C4554   1.509       .  S
C4547      C4548   1.409       .  A
C4548      C4549   1.410       .  A
C4548      H4553   1.084       .  S
C4549      C4550   1.419       .  A
C4550      C4551   1.507       .  S
C4551      H4555   1.111       .  S
C4551      H4556   1.107       .  S
C4551      H4557   1.110       .  S
C4554      H4558   1.111       .  S
C4554      H4559   1.109       .  S
C4554      H4560   1.111       .  S
C4561      C4562   1.404       .  A
C4561      C4566   1.393       .  A
C4561      H4568   1.084       .  S
C4562      C4563   1.419       .  A
C4563      C4570   1.502       .  S
C4563      C4564   1.405       .  A
C4564      C4565   1.399       .  A
C4564      H4569   1.085       .  S
C4565      C4566   1.411       .  A
C4566      C4567   1.506       .  S
C4567      H4571   1.111       .  S
C4570      H4574   1.109       .  S
C4570      H4575   1.109       .  S
C4570      H4576   1.111       .  S
C4577      C4578   1.404       .  A
C4577      C4582   1.399       .  A
C4577      H4584   1.085       .  S
C4578      C4579   1.415       .  A
C4579      C4586   1.511       .  S
C4579      C4580   1.395       .  A
C4580      C4581   1.401       .  A
C4580      H4585   1.085       .  S
C4581      C4582   1.407       .  A
C4582      C4583   1.506       .  S
C4583      H4587   1.111       .  S
C4583      H4588   1.110       .  S
C4583      H4589   1.110       .  S
C4586      H4590   1.104       .  S
C4586      H4591   1.110       .  S
C4586      H4592   1.111       .  S
C4593      C4594   1.402       .  A
C4593      C4598   1.406       .  A
C4593      H4600   1.085       .  S
C4594      C4595   1.409       .  A
C4595      C4602   1.506       .  S
C4595      C4596   1.401       .  A
C4596      C4597   1.409       .  A
C4596      H4601   1.084       .  S
C4597      C4598   1.420       .  A
C4598      C4599   1.506       .  S
C4599      H4603   1.111       .  S
C4599      H4604   1.109       .  S
C4599      H4605   1.107       .  S
C4602      H4606   1.110       .  S
C4602      H4607   1.106       .  S
C4602      H4608   1.111       .  S
C4609      C4610   1.401       .  A
C4609      C4614   1.406       .  A
C4609      H4616   1.085       .  S
C4610      C4611   1.413       .  A
C4611      C4618   1.509       .  S
C4611      C4612   1.398       .  A
C4612      C4613   1.406       .  A
C4612      H4617   1.083       .  S
C4613      C4614   1.418       .  A
C4614      C4615   1.501       .  S
C4615      H4619   1.111       .  S
C4615      H4620   1.101       .  S
C4615      H4621   1.110       .  S
C4618      H4622   1.105       .  S
C4618      H4623   1.110       .  S
C4618      H4624   1.111       .  S
C4625      C4626   1.406       .  A
C4625      C4630   1.402       .  A
C4625      H4632   1.076       .  S
C4626      C4627   1.434       .  A
C4627      C4634   1.513       .  S
C4627      C4628   1.405       .  A
C4628      C4629   1.399       .  A
C4628      H4633   1.084   1_554  S
C4629      C4630   1.423       .  A
C4630      C4631   1.508       .  S
C4631      H4635   1.111       .  S
C4631      H4636   1.103       .  S
C4631      H4637   1.110   1_554  S
C4634      H4638   1.107       .  S
C4634      H4639   1.108       .  S
C4634      H4640   1.111       .  S
C4641      C4642   1.401       .  A
C4641      C4646   1.405       .  A
C4641      H4648   1.085       .  S
C4642      C4643   1.408       .  A
C4643      C4650   1.502       .  S
C4643      C4644   1.398       .  A
C4644      C4645   1.405       .  A
C4644      H4649   1.079       .  S
C4645      C4646   1.422       .  A
C4646      C4647   1.505       .  S
C4647      H4651   1.111       .  S
C4647      H4652   1.103       .  S
C4647      H4653   1.110       .  S
C4650      H4654   1.109       .  S
C4650      H4655   1.109       .  S
C4650      H4656   1.111       .  S
C4657      C4658   1.412       .  A
C4657      C4662   1.403       .  A
C4657      H4664   1.085       .  S
C4658      C4659   1.411       .  A
C4659      C4666   1.509   1_554  S
C4659      C4660   1.401       .  A
C4660      C4661   1.417       .  A
C4660      H4665   1.085       .  S
C4661      C4662   1.412       .  A
C4662      C4663   1.504       .  S
C4663      H4667   1.111       .  S
C4663      H4668   1.110       .  S
C4663      H4669   1.108       .  S
C4666      H4670   1.110       .  S
C4666      H4671   1.109       .  S
C4666      H4672   1.111   1_556  S
C4673      C4674   1.404       .  A
C4673      C4678   1.392       .  A
C4673      H4680   1.083       .  S
C4674      C4675   1.416       .  A
C4675      C4682   1.503       .  S
C4675      C4676   1.402       .  A
C4676      C4677   1.400       .  A
C4676      H4681   1.085       .  S
C4677      C4678   1.409       .  A
C4678      C4679   1.506       .  S
C4679      H4683   1.111       .  S
C4679      H4684   1.103       .  S
C4679      H4685   1.110       .  S
C4682      H4686   1.106       .  S
C4682      H4687   1.109       .  S
C4682      H4688   1.111       .  S
C4689      C4690   1.399       .  A
C4689      C4694   1.399       .  A
C4689      H4696   1.076       .  S
C4690      C4691   1.431       .  A
C4691      C4698   1.514       .  S
C4691      C4692   1.404       .  A
C4692      C4693   1.400       .  A
C4692      H4697   1.084   1_554  S
C4693      C4694   1.421       .  A
C4694      C4695   1.499       .  S
C4695      H4699   1.111       .  S
C4695      H4700   1.108       .  S
C4695      H4701   1.109       .  S
C4698      H4702   1.108       .  S
C4698      H4703   1.106       .  S
C4698      H4704   1.111       .  S
