geometry optimzed in LAMMPS
_audit_creation_date              2020-11-30 
_audit_creation_method            'lammps2cif' 
_symmetry_space_group_name_H-M    'P1' 
_symmetry_Int_Tables_number       1 
_symmetry_cell_setting            triclinic 
loop_ 
_symmetry_equiv_pos_as_xyz 
  x,y,z 
_cell_length_a                    30.04483282 
_cell_length_b                    30.24842614985894 
_cell_length_c                    48.216541368575605 
_cell_angle_alpha                 90.96610810321471 
_cell_angle_beta                  87.84233750521055 
_cell_angle_gamma                 120.51208372415533 
loop_ 
_atom_site_label 
_atom_site_type_symbol 
_atom_site_fract_x 
_atom_site_fract_y 
_atom_site_fract_z 
_atom_site_charge 
O1          O  0.42791100  0.08405031  0.27998963    -0.75500
O2          O  0.46779597  0.06367523  0.31234872    -0.54400
C3          C  0.44217412  0.08402506  0.30509361     0.78200
O4          O  0.35406855  0.87765284  0.20463414    -0.60100
O5          O  0.42286868  0.89696934  0.17639848    -0.53100
C6          C  0.37474251  0.88044465  0.18022089     0.70200
O7          O  0.36892914  0.89648878  0.30145419    -0.74700
O8          O  0.42973922  0.96745885  0.32355515    -0.55200
C9          C  0.38796327  0.92422009  0.32343373     0.76200
O10         O  0.43050726  0.05389513  0.18252164    -0.59800
O11         O  0.45038527  0.99871412  0.16100603    -0.52900
C12         C  0.43432750  0.03017866  0.16054509     0.72800
Zr13       Zr  0.44471426  0.05461509  0.23380954     2.54700
O14         O  0.35680336  0.03875542  0.23229796    -0.80400
O15         O  0.47575322  0.14434926  0.22344284    -0.93800
Zr16       Zr  0.39403872  0.90539466  0.25094222     2.64700
O17         O  0.30206272  0.87173341  0.26019267    -0.98800
O18         O  0.37348862  0.81655247  0.25264328    -0.80800
O19         O  0.42557958  0.98911790  0.26405617    -0.84200
O20         O  0.41451362  0.97064600  0.21722059    -2.18900
O21         O  0.61451150  0.09777118  0.18450265    -0.67600
O22         O  0.54857893  0.03361502  0.16094589    -0.52100
C23         C  0.59234626  0.07487821  0.16189980     0.71200
O24         O  0.55923365  0.93865524  0.30228357    -0.60500
O25         O  0.53109443  0.98696744  0.32446923    -0.52500
C26         C  0.55097040  0.95858310  0.32466400     0.73000
O27         O  0.56871147  0.91544687  0.20531144    -0.71900
O28         O  0.53018009  0.93632645  0.17231687    -0.50500
C29         C  0.55884346  0.91928524  0.17977323     0.74400
O30         O  0.63154517  0.09596542  0.28085710    -0.67200
O31         O  0.56630947  0.09111868  0.30614756    -0.54400
C32         C  0.61126448  0.09742039  0.30463211     0.72800
Zr33       Zr  0.59201115  0.08522510  0.23493006     2.77500
O34         O  0.68553727  0.12680281  0.22782005    -0.97900
O35         O  0.61187986  0.17390676  0.23805800    -0.78800
Zr36       Zr  0.54213651  0.93663553  0.25128955     2.70100
O37         O  0.62627466  0.94510706  0.25704803    -0.80000
O38         O  0.50401228  0.84441279  0.25732240    -0.99100
Zr39       Zr  0.49596813  0.01365540  0.28968199     2.21500
Zr40       Zr  0.48943547  0.97624056  0.19518511     2.11100
O41         O  0.56896576  0.00294158  0.21722153    -2.47800
O42         O  0.56275582  0.01727724  0.26461397    -0.79800
O43         O  0.51489541  0.05474962  0.21351515    -0.72000
O44         O  0.46851303  0.92762725  0.27699313    -2.33000
O45         O  0.52103433  0.08410956  0.25926711    -2.29200
O46         O  0.46802515  0.91627629  0.22864461    -0.73800
H47         H  0.38707324  0.96381732  0.20501466     0.78200
H48         H  0.46002448  0.90532756  0.29280312     0.79300
H49         H  0.59689499  0.00692242  0.20489646     0.81500
H50         H  0.53055394  0.11614866  0.26853360     0.79200
H51         H  0.36374871  0.80654334  0.27237353     0.42200
H52         H  0.47942911  0.83554030  0.27339346     0.41200
H53         H  0.65140562  0.98168624  0.25303389     0.40800
H54         H  0.69126724  0.10090289  0.21815427     0.38800
H55         H  0.64858598  0.19368069  0.24317395     0.41900
H56         H  0.45199448  0.14343773  0.20945337     0.36700
H57         H  0.33856463  0.00851485  0.22009612     0.42800
H58         H  0.29555265  0.89819283  0.25279415     0.39200
H59         H  0.69505170  0.15407894  0.21384696     0.44100
H60         H  0.50899008  0.15635978  0.21306631     0.42900
H61         H  0.28440849  0.84227049  0.24741949     0.43000
H62         H  0.48185581  0.82893895  0.24116195     0.43400
O63         O  0.05770708  0.60279516  0.30459432    -0.75500
O64         O  0.99627346  0.53252642  0.32786475    -0.54400
C65         C  0.03186889  0.57936829  0.32721650     0.78200
O66         O  0.91515903  0.51477520  0.18504242    -0.60100
O67         O  0.97315327  0.49840038  0.16278301    -0.53100
C68         C  0.94015420  0.51278666  0.16272200     0.70200
O69         O  0.89444218  0.52756840  0.28244851    -0.74700
O70         O  0.89453110  0.47120362  0.31214502    -0.55200
C71         C  0.88818262  0.50855792  0.30712188     0.76200
O72         O  0.08652050  0.62109420  0.20708762    -0.59800
O73         O  0.06209800  0.55724263  0.17499366    -0.52900
C74         C  0.08261633  0.60432574  0.18179076     0.72800
Zr75       Zr  0.05909589  0.57999248  0.25414978     2.54700
O76         O  0.06279275  0.66198750  0.25903167    -0.80400
O77         O  0.15279059  0.62676976  0.25754434    -0.93800
Zr78       Zr  0.90828881  0.49524977  0.23669084     2.64700
O79         O  0.87306451  0.55071809  0.22856118    -0.98800
O80         O  0.81650963  0.43199925  0.23440478    -0.80800
O81         O  0.97415977  0.52985838  0.26730672    -0.84200
O82         O  0.99419435  0.54382360  0.22024247    -2.18900
O83         O  0.09677494  0.43335366  0.21064439    -0.67600
O84         O  0.09606763  0.49872013  0.19321300    -0.52100
C85         C  0.09992905  0.45963821  0.18927515     0.71200
O86         O  0.91113866  0.33114847  0.28982096    -0.60500
O87         O  0.89420792  0.38685174  0.30978149    -0.52500
C88         C  0.90094326  0.34933905  0.31192873     0.73000
O89         O  0.90367794  0.34888884  0.19210902    -0.71900
O90         O  0.97591733  0.40936145  0.16865088    -0.50500
C91         C  0.93133846  0.36859951  0.16968277     0.74400
O92         O  0.07183129  0.43993637  0.30776721    -0.67200
O93         O  0.00906622  0.44932814  0.33042763    -0.54400
C94         C  0.04764502  0.44225302  0.33007564     0.72800
Zr95       Zr  0.06807091  0.45005491  0.25697491     2.77500
O96         O  0.07794704  0.37620600  0.26490288    -0.97900
O97         O  0.16141772  0.50354168  0.26070104    -0.78800
Zr98       Zr  0.91662993  0.36588288  0.24222199     2.70100
O99         O  0.90916661  0.28319545  0.23216776    -0.80000
O100        O  0.82266548  0.31594858  0.24713115    -0.99100
Zr101      Zr  0.96582773  0.46586172  0.29477518     2.21500
Zr102      Zr  0.00995751  0.48053579  0.19994834     2.11100
O103        O  0.00249175  0.40784403  0.22324988    -2.47800
O104        O  0.98317304  0.41033470  0.27144710    -0.79800
O105        O  0.06869097  0.51609104  0.23359458    -0.72000
O106        O  0.89581728  0.42467960  0.26389390    -2.33000
O107        O  0.05506294  0.51281232  0.28107850    -2.29200
O108        O  0.92886703  0.43726672  0.21889002    -0.73800
H109        H  0.99581921  0.56931465  0.20784076     0.78200
H110        H  0.86131698  0.40764825  0.27226995     0.79300
H111        H  0.00641566  0.38400483  0.21134465     0.81500
H112        H  0.07736644  0.52690543  0.29664833     0.79200
H113        H  0.79920827  0.44690011  0.24576173     0.42200
H114        H  0.81202491  0.28987077  0.23226193     0.41200
H115        H  0.94104375  0.29147338  0.22125042     0.40800
H116        H  0.05403624  0.34972265  0.25194922     0.38800
H117        H  0.17571856  0.50478851  0.24170854     0.41900
H118        H  0.16562368  0.61708163  0.24066305     0.36700
H119        H  0.02804701  0.65461134  0.25397473     0.42800
H120        H  0.90264530  0.58286073  0.22094200     0.39200
H121        H  0.11287980  0.38657070  0.25710175     0.44100
H122        H  0.15946989  0.60993313  0.27296360     0.42900
H123        H  0.84989789  0.53502732  0.21277568     0.43000
H124        H  0.81561399  0.29620137  0.26453174     0.43400
O125        O  0.54494109  0.64169901  0.31391046    -0.75500
O126        O  0.54921294  0.57733688  0.33526689    -0.54400
C127        C  0.55315182  0.62127431  0.33500594     0.78200
O128        O  0.34597236  0.45844118  0.22596061    -0.60100
O129        O  0.40652257  0.50522575  0.19272521    -0.53100
C130        C  0.36025508  0.47456679  0.20060980     0.70200
O131        O  0.37759078  0.46877644  0.32200627    -0.74700
O132        O  0.45301127  0.48806458  0.34167054    -0.55200
C133        C  0.40485280  0.47240044  0.34315841     0.76200
O134        O  0.55635850  0.65408166  0.21593646    -0.59800
O135        O  0.48624208  0.59474830  0.19590430    -0.52900
C136        C  0.53018113  0.63464079  0.19397540     0.72800
Zr137      Zr  0.52902278  0.61994043  0.26406362     2.54700
O138        O  0.47982030  0.66382593  0.26523582    -0.80400
O139        O  0.60317043  0.70585847  0.27052918    -0.93800
Zr140      Zr  0.39271189  0.48571569  0.27071150     2.64700
O141        O  0.35844966  0.54318863  0.27644204    -0.98800
O142        O  0.30369618  0.41917449  0.28111888    -0.80800
O143        O  0.47049023  0.54670772  0.28776242    -0.84200
O144        O  0.45046934  0.55804563  0.24341085    -2.18900
O145        O  0.61930270  0.56026327  0.19379310    -0.67600
O146        O  0.54465854  0.54457023  0.17457555    -0.52100
C147        C  0.59194015  0.55695636  0.17284900     0.71200
O148        O  0.45157886  0.36772020  0.29792899    -0.60500
O149        O  0.49082305  0.43293752  0.32892297    -0.52500
C150        C  0.46485336  0.38544038  0.32290287     0.73000
O151        O  0.45598446  0.38806735  0.19995240    -0.71900
O152        O  0.45649560  0.45366863  0.17712551    -0.50500
C153        C  0.45334905  0.40998792  0.17764233     0.74400
O154        O  0.64982471  0.56563974  0.28937964    -0.67200
O155        O  0.58522054  0.49904065  0.31017122    -0.54400
C156        C  0.62834709  0.53991941  0.31177331     0.72800
Zr157      Zr  0.60358664  0.54405149  0.24468660     2.77500
O158        O  0.64135134  0.48981262  0.23813021    -0.97900
O159        O  0.68977387  0.61636747  0.23430769    -0.78800
Zr160      Zr  0.46634530  0.40833421  0.25068192     2.70100
O161        O  0.51192847  0.36089839  0.24848906    -0.80000
O162        O  0.38650208  0.32748347  0.24368541    -0.99100
Zr163      Zr  0.51190184  0.50772961  0.30396013     2.21500
Zr164      Zr  0.48277247  0.51927119  0.21139333     2.11100
O165        O  0.52928819  0.47801737  0.22262557    -2.47800
O166        O  0.53910035  0.47521436  0.26923083    -0.79800
O167        O  0.55464065  0.57865029  0.23304228    -0.72000
O168        O  0.43348005  0.44164435  0.28555686    -2.33000
O169        O  0.57615391  0.58261972  0.27987153    -2.29200
O170        O  0.42699560  0.45304238  0.23902234    -0.73800
H171        H  0.43196122  0.57309456  0.23560552     0.78200
H172        H  0.40996441  0.41593848  0.29862151     0.79300
H173        H  0.54044325  0.46636165  0.20649019     0.81500
H174        H  0.60387784  0.60793480  0.29088260     0.79200
H175        H  0.30524018  0.38744969  0.28301453     0.42200
H176        H  0.39303452  0.30117484  0.25131602     0.41200
H177        H  0.51928869  0.35913578  0.22843877     0.40800
H178        H  0.61135545  0.45465900  0.23637106     0.38800
H179        H  0.68732013  0.64701875  0.23912905     0.41900
H180        H  0.62066188  0.71661826  0.25202880     0.36700
H181        H  0.45468630  0.64791121  0.28100128     0.42800
H182        H  0.32071898  0.52014272  0.27943870     0.39200
H183        H  0.65752998  0.49847947  0.21922552     0.44100
H184        H  0.62737955  0.70075132  0.28154152     0.42900
H185        H  0.37068583  0.55968614  0.29466819     0.43000
H186        H  0.36115759  0.32851482  0.25700913     0.43400
O187        O  0.79404407  0.43731250  0.98423364    -0.75500
O188        O  0.88010318  0.49174236  0.98767682    -0.54400
C189        C  0.84020270  0.44546579  0.98588982     0.78200
O190        O  0.74195951  0.62781094  0.42845271    -0.60100
O191        O  0.66466018  0.57592898  0.44746194    -0.53100
C192        C  0.69348245  0.59881648  0.42590289     0.70200
O193        O  0.88021828  0.61604822  0.41815377    -0.74700
O194        O  0.89988031  0.56319660  0.43912903    -0.55200
C195        C  0.89460884  0.58343556  0.41693483     0.76200
O196        O  0.64395443  0.43694878  0.48960680    -0.59800
O197        O  0.61330943  0.49147149  0.49368987    -0.52900
C198        C  0.60637465  0.44544471  0.49186935     0.72800
Zr199      Zr  0.73836617  0.47333332  0.98444602     2.54700
O200        O  0.70426152  0.41177034  0.44823876    -0.80400
O201        O  0.69977660  0.40353789  0.01818886    -0.93800
Zr202      Zr  0.79418557  0.58953408  0.43427310     2.64700
O203        O  0.74859237  0.51893440  0.40194066    -0.98800
O204        O  0.81884058  0.63017489  0.38871827    -0.80800
O205        O  0.80657038  0.52818264  0.45777364    -0.84200
O206        O  0.71982683  0.52782142  0.46017441    -2.18900
O207        O  0.71412191  0.56956844  0.06872135    -0.67600
O208        O  0.66126405  0.57592236  0.03833818    -0.52100
C209        C  0.67556703  0.57416244  0.06309048     0.71200
O210        O  0.94275132  0.72278948  0.49743851    -0.60500
O211        O  0.95759326  0.65780352  0.99034503    -0.52500
C212        C  0.97422112  0.70572521  0.99525150     0.73000
O213        O  0.78487484  0.72511206  0.49842964    -0.71900
O214        O  0.70266861  0.65657531  0.49523636    -0.50500
C215        C  0.73464699  0.70507283  0.49775840     0.74400
O216        O  0.85838930  0.57372769  0.06584318    -0.67200
O217        O  0.91447118  0.57162227  0.03339084    -0.54400
C218        C  0.89928551  0.57295576  0.05883907     0.72800
Zr219      Zr  0.78523461  0.56892442  0.04599184     2.77500
O220        O  0.81256970  0.62631661  0.08579312    -0.97900
O221        O  0.74654901  0.49066192  0.07359191    -0.78800
Zr222      Zr  0.84510217  0.68788408  0.49570809     2.70100
O223        O  0.86839487  0.73780755  0.03953654    -0.80000
O224        O  0.87872764  0.75122593  0.45841437    -0.99100
Zr225      Zr  0.87914915  0.57559819  0.98814266     2.21500
Zr226      Zr  0.69870719  0.57512733  0.49309383     2.11100
O227        O  0.77086728  0.62742494  0.02195880    -2.47800
O228        O  0.85933096  0.62671548  0.01955020    -0.79800
O229        O  0.71559690  0.51784420  0.01734905    -0.72000
O230        O  0.86395295  0.63694852  0.46473807    -2.33000
O231        O  0.80497829  0.51893271  0.01568054    -2.29200
O232        O  0.77412014  0.63723449  0.46651052    -0.73800
H233        H  0.69144435  0.50792844  0.44811945     0.78200
H234        H  0.89590057  0.66257925  0.45588803     0.79300
H235        H  0.76161676  0.64628820  0.03496361     0.81500
H236        H  0.81113056  0.49599126  0.02639980     0.79200
H237        H  0.83764215  0.66745866  0.39264955     0.42200
H238        H  0.90538172  0.74644471  0.44843327     0.41200
H239        H  0.90559755  0.76369646  0.03722508     0.40800
H240        H  0.80219653  0.65187744  0.08211369     0.38800
H241        H  0.75611484  0.50265684  0.09285611     0.41900
H242        H  0.68062033  0.41322612  0.03173693     0.36700
H243        H  0.68674704  0.42409149  0.43624134     0.42800
H244        H  0.71863244  0.52152917  0.39635995     0.39200
H245        H  0.79003907  0.60570383  0.10166076     0.44100
H246        H  0.72906972  0.40687300  0.02862912     0.42900
H247        H  0.77135535  0.52864312  0.38505067     0.43000
H248        H  0.85011112  0.73850112  0.44534809     0.43400
O249        O  0.64474410  0.21151475  0.97680620    -0.75500
O250        O  0.61098287  0.12573140  0.98152434    -0.54400
C251        C  0.60590532  0.16562871  0.97818843     0.78200
O252        O  0.89374864  0.26040765  0.43291722    -0.60100
O253        O  0.92332546  0.33936948  0.44707741    -0.53100
C254        C  0.91500062  0.30784577  0.42717593     0.70200
O255        O  0.74094313  0.12619543  0.41207311    -0.74700
O256        O  0.66587453  0.09758795  0.43645856    -0.55200
C257        C  0.69189292  0.10528253  0.41330001     0.76200
O258        O  0.79034391  0.35552425  0.48297662    -0.59800
O259        O  0.87542819  0.38683017  0.48978703    -0.52900
C260        C  0.83631995  0.39332281  0.48631516     0.72800
Zr261      Zr  0.73632771  0.26502416  0.98156212     2.54700
O262        O  0.71234739  0.29720880  0.44190853    -0.80400
O263        O  0.69977501  0.29640704  0.01738336    -0.93800
Zr264      Zr  0.80107468  0.20851731  0.43104098     2.64700
O265        O  0.78677514  0.25639515  0.39570664    -0.98800
O266        O  0.83219853  0.18753468  0.38835531    -0.80800
O267        O  0.72262837  0.19420135  0.45320747    -0.84200
O268        O  0.81049359  0.28093637  0.45635956    -2.18900
O269        O  0.82647439  0.30454079  0.05128885    -0.67600
O270        O  0.90711166  0.33519855  0.03637789    -0.52100
C271        C  0.87404685  0.32481557  0.05640442     0.71200
O272        O  0.78067564  0.06096050  0.49642041    -0.60500
O273        O  0.69846680  0.04583993  0.98839733    -0.52500
C274        C  0.72984656  0.02963608  0.99371352     0.73000
O275        O  0.93880346  0.21844224  0.49801914    -0.71900
O276        O  0.95282577  0.29977942  0.49383113    -0.50500
C277        C  0.96923034  0.26838491  0.49711360     0.74400
O278        O  0.71919763  0.12167073  0.04536231    -0.67200
O279        O  0.64322200  0.08849383  0.02789262    -0.54400
C280        C  0.67082683  0.10170389  0.04933576     0.72800
Zr281      Zr  0.77304233  0.21329446  0.04537888     2.77500
O282        O  0.80574242  0.20292933  0.08879060    -0.97900
O283        O  0.71223479  0.21844611  0.07821033    -0.78800
Zr284      Zr  0.84104178  0.15783412  0.49418217     2.70100
O285        O  0.85845107  0.12957257  0.03945396    -0.80000
O286        O  0.87819964  0.12827758  0.45780129    -0.99100
Zr287      Zr  0.69433146  0.12407114  0.98484314     2.21500
Zr288      Zr  0.87501364  0.30270869  0.49049004     2.11100
O289        O  0.85135993  0.23046969  0.02183573    -2.47800
O290        O  0.76161269  0.14359503  0.01731337    -0.79800
O291        O  0.79812008  0.28348672  0.01486617    -0.72000
O292        O  0.77432178  0.13818745  0.46183084    -2.33000
O293        O  0.70807646  0.19606091  0.01312217    -2.29200
O294        O  0.86424661  0.22871887  0.46459531    -0.73800
H295        H  0.82030219  0.30951163  0.44365453     0.78200
H296        H  0.76894847  0.10781822  0.45208952     0.79300
H297        H  0.87747273  0.23904226  0.03521464     0.81500
H298        H  0.67643909  0.18903924  0.02294303     0.79200
H299        H  0.85432307  0.17434524  0.39459881     0.42200
H300        H  0.85330989  0.09106520  0.45606268     0.41200
H301        H  0.84840711  0.14640154  0.05414798     0.40800
H302        H  0.84202697  0.21270870  0.08440341     0.38800
H303        H  0.72112095  0.25471806  0.07733353     0.41900
H304        H  0.72876323  0.31771683  0.02966265     0.36700
H305        H  0.69123249  0.31104661  0.45012693     0.42800
H306        H  0.78942634  0.24139670  0.37774733     0.39200
H307        H  0.80809872  0.23069538  0.10093215     0.44100
H308        H  0.67586651  0.26613844  0.02885305     0.42900
H309        H  0.74965301  0.24525605  0.39801235     0.43000
H310        H  0.87478232  0.14338569  0.44052595     0.43400
O311        O  0.35648735  0.79094468  0.01009017    -0.75500
O312        O  0.39061555  0.87704834  0.00674252    -0.54400
C313        C  0.39542889  0.83673707  0.00850827     0.78200
O314        O  0.15042563  0.72267888  0.42609305    -0.60100
O315        O  0.08957660  0.66560438  0.45669888    -0.53100
C316        C  0.10635142  0.68354687  0.43174519     0.70200
O317        O  0.31826818  0.83274819  0.44639183    -0.74700
O318        O  0.34869367  0.91254404  0.45936741    -0.55200
C319        C  0.34149809  0.87994499  0.44009435     0.76200
O320        O  0.20874788  0.64532234  0.51218560    -0.59800
O321        O  0.12364552  0.61399863  0.50547297    -0.52900
C322        C  0.16253243  0.60746153  0.50975892     0.72800
Zr323      Zr  0.26414904  0.73655481  0.01119060     2.54700
O324        O  0.30361561  0.70447225  0.47745168    -0.80400
O325        O  0.29163321  0.70950473  0.05113771    -0.93800
Zr326      Zr  0.22580816  0.78733110  0.44774297     2.64700
O327        O  0.25040731  0.75133655  0.40853344    -0.98800
O328        O  0.22466365  0.84463278  0.41318432    -0.80800
O329        O  0.28974192  0.80466363  0.47985557    -0.84200
O330        O  0.20135927  0.71579918  0.47716436    -2.18900
O331        O  0.11604232  0.73485795  0.07554883    -0.67600
O332        O  0.09653479  0.66353698  0.05136371    -0.52100
C333        C  0.09982120  0.68715356  0.07448291     0.71200
O334        O  0.21864951  0.94194184  0.49805565    -0.60500
O335        O  0.30298884  0.95760305  0.00396156    -0.52500
C336        C  0.27102594  0.97414811  0.00160552     0.73000
O337        O  0.06175960  0.78172627  0.49441336    -0.71900
O338        O  0.04672063  0.70059487  0.50263999    -0.50500
C339        C  0.03091023  0.73201655  0.49764279     0.74400
O340        O  0.26265919  0.88740304  0.06894745    -0.67200
O341        O  0.34092679  0.91133272  0.05196925    -0.54400
C342        C  0.30975531  0.90210859  0.07296439     0.72800
Zr343      Zr  0.20325653  0.79728704  0.06181072     2.77500
O344        O  0.17922589  0.82711504  0.10395232    -0.97900
O345        O  0.23944007  0.76773541  0.09639541    -0.78800
Zr346      Zr  0.15983706  0.84444424  0.49682302     2.70100
O347        O  0.12385443  0.87771228  0.03396716    -0.80000
O348        O  0.13900418  0.86800863  0.45318653    -0.99100
Zr349      Zr  0.30763144  0.87938173  0.00566295     2.21500
Zr350      Zr  0.12557274  0.69887640  0.50334406     2.11100
O351        O  0.13767758  0.77598715  0.02907832    -2.47800
O352        O  0.22909433  0.86534175  0.02983024    -0.79800
O353        O  0.19072471  0.72288936  0.03730841    -0.72000
O354        O  0.23845588  0.86090220  0.47281608    -2.33000
O355        O  0.27887755  0.80884643  0.03752380    -2.29200
O356        O  0.14986764  0.77032843  0.47289447    -0.73800
H357        H  0.19575426  0.68632903  0.46632807     0.78200
H358        H  0.24978952  0.88953744  0.46034397     0.79300
H359        H  0.10566827  0.77017394  0.03779793     0.81500
H360        H  0.30530052  0.81552556  0.05040316     0.79200
H361        H  0.24141799  0.83977968  0.39628018     0.42200
H362        H  0.12651202  0.83693570  0.44150933     0.41200
H363        H  0.13078551  0.86694701  0.05180388     0.40800
H364        H  0.14804372  0.82826992  0.09923042     0.38800
H365        H  0.21312454  0.75367810  0.11175176     0.41900
H366        H  0.31450494  0.74148848  0.06124821     0.36700
H367        H  0.29741601  0.71438828  0.45915415     0.42800
H368        H  0.23187760  0.75338039  0.39250230     0.39200
H369        H  0.16660693  0.79876165  0.11755438     0.44100
H370        H  0.31526745  0.69867034  0.04295010     0.42900
H371        H  0.23369156  0.71421184  0.41268247     0.43000
H372        H  0.10773565  0.87016402  0.45767985     0.43400
O373        O  0.58145016  0.85147322  0.42620881    -0.75500
O374        O  0.57629128  0.90831447  0.45591758    -0.54400
C375        C  0.58088268  0.89289441  0.43120655     0.78200
O376        O  0.43520891  0.64626530  0.52106603    -0.60100
O377        O  0.48947460  0.61486557  0.51719209    -0.53100
C378        C  0.44327616  0.60850360  0.52079054     0.70200
O379        O  0.43714273  0.79042188  0.01232962    -0.74700
O380        O  0.49176232  0.87521291  0.00479433    -0.55200
C381        C  0.44558092  0.83607563  0.00871279     0.76200
O382        O  0.61783657  0.73159781  0.45019963    -0.59800
O383        O  0.57145308  0.65441542  0.46848131    -0.52900
C384        C  0.59289654  0.68317193  0.44720714     0.72800
Zr385      Zr  0.57212636  0.77818595  0.45056822     2.54700
O386        O  0.49591746  0.71871541  0.42516037    -0.80400
O387        O  0.60765407  0.78787611  0.40331283    -0.93800
Zr388      Zr  0.47327443  0.73510042  0.01414940     2.64700
O389        O  0.40599583  0.69672610  0.47909837    -0.98800
O390        O  0.40989798  0.70707648  0.05264047    -0.80800
O391        O  0.51902466  0.79936517  0.47871744    -0.84200
O392        O  0.51919899  0.71164596  0.48279889    -2.18900
O393        O  0.72533757  0.78380804  0.49734937    -0.67600
O394        O  0.65746504  0.70294887  0.50750716    -0.52100
C395        C  0.70561781  0.73428476  0.50128582     0.71200
O396        O  0.63428572  0.89133150  0.06107886    -0.60500
O397        O  0.57939986  0.91437248  0.04855097    -0.52500
C398        C  0.60637526  0.91052675  0.06738961     0.73000
O399        O  0.62307389  0.74662876  0.08077853    -0.71900
O400        O  0.57834307  0.67083875  0.05883194    -0.50500
C401        C  0.59788771  0.69774269  0.08089240     0.74400
O402        O  0.72383637  0.94331004  0.49657025    -0.67200
O403        O  0.65279827  0.95351869  0.99919438    -0.54400
C404        C  0.70160861  0.97138369  0.99672837     0.72800
Zr405      Zr  0.68991509  0.84578980  0.49972787     2.77500
O406        O  0.75567597  0.88139699  0.03413700    -0.97900
O407        O  0.74412482  0.86990815  0.45748782    -0.78800
Zr408      Zr  0.59227363  0.79946160  0.06291301     2.70100
O409        O  0.62753195  0.83088932  0.10846747    -0.80000
O410        O  0.52032324  0.76410273  0.09679206    -0.99100
Zr411      Zr  0.57462833  0.87354497  0.00312631     2.21500
Zr412      Zr  0.57537374  0.69894582  0.51162887     2.11100
O413        O  0.64092921  0.77704238  0.03194897    -2.47800
O414        O  0.63718539  0.86400058  0.02863223    -0.79800
O415        O  0.62804789  0.76765181  0.47904323    -0.72000
O416        O  0.52981940  0.80948962  0.03863117    -2.33000
O417        O  0.62891005  0.85549432  0.47367250    -2.29200
O418        O  0.52964770  0.72278765  0.04177151    -0.73800
H419        H  0.49621956  0.68030606  0.47327192     0.78200
H420        H  0.51010582  0.81863298  0.05100386     0.79300
H421        H  0.66701584  0.77275837  0.04046612     0.81500
H422        H  0.64903965  0.88274722  0.46050780     0.79200
H423        H  0.41116973  0.73862944  0.05965824     0.42200
H424        H  0.48876507  0.74845377  0.08581236     0.41200
H425        H  0.66524186  0.85292647  0.10487081     0.40800
H426        H  0.78748977  0.90685908  0.02390136     0.38800
H427        H  0.72007552  0.84941851  0.44273849     0.41900
H428        H  0.58749121  0.75372554  0.39464096     0.36700
H429        H  0.49507043  0.73929113  0.40965547     0.42800
H430        H  0.41799912  0.72203292  0.46378209     0.39200
H431        H  0.74575503  0.90227262  0.04599988     0.44100
H432        H  0.64257772  0.79281956  0.40531268     0.42900
H433        H  0.40927464  0.66798321  0.47130530     0.43000
H434        H  0.52066754  0.73445148  0.10494894     0.43400
O435        O  0.20715542  0.56431800  0.01412363    -0.75500
O436        O  0.12217060  0.51032108  0.00702977    -0.54400
C437        C  0.16172709  0.55643445  0.00984473     0.78200
O438        O  0.27280786  0.39015701  0.45723537    -0.60100
O439        O  0.34701730  0.43244162  0.47793324    -0.53100
C440        C  0.32193605  0.41475842  0.45559413     0.70200
O441        O  0.15753628  0.43106934  0.43403593    -0.74700
O442        O  0.09504950  0.43077771  0.46255820    -0.55200
C443        C  0.11496191  0.43035547  0.43836722     0.76200
O444        O  0.35370060  0.56574683  0.52511947    -0.59800
O445        O  0.38516856  0.51170914  0.52181710    -0.52900
C446        C  0.39191866  0.55777769  0.52324851     0.72800
Zr447      Zr  0.26153129  0.52797425  0.01998539     2.54700
O448        O  0.30584363  0.61033366  0.49986421    -0.80400
O449        O  0.28048546  0.58046718  0.06154378    -0.93800
Zr450      Zr  0.22758483  0.43693024  0.45939422     2.64700
O451        O  0.29310798  0.51412882  0.43514016    -0.98800
O452        O  0.21924251  0.40847123  0.41137608    -0.80800
O453        O  0.20291014  0.48628061  0.48769696    -0.84200
O454        O  0.28952740  0.48603804  0.49292016    -2.18900
O455        O  0.24830327  0.38433882  0.08850058    -0.67600
O456        O  0.32577719  0.43884966  0.06948652    -0.52100
C457        C  0.29561963  0.41717573  0.09089643     0.71200
O458        O  0.05699814  0.27736230  0.50171796    -0.60500
O459        O  0.04462233  0.34445083  0.00438873    -0.52500
C460        C  0.02744054  0.29593251  0.00238028     0.73000
O461        O  0.21769183  0.28033253  0.50604630    -0.71900
O462        O  0.29715863  0.34633748  0.51881389    -0.50500
C463        C  0.26668359  0.29929514  0.51147249     0.74400
O464        O  0.09837745  0.36783901  0.06825708    -0.67200
O465        O  0.07592370  0.42105281  0.05273197    -0.54400
C466        C  0.08050916  0.39723580  0.07324400     0.72800
Zr467      Zr  0.19020851  0.40786029  0.07033357     2.77500
O468        O  0.15695144  0.35923845  0.11354590    -0.97900
O469        O  0.20601044  0.47476743  0.10408905    -0.78800
Zr470      Zr  0.15430705  0.31423883  0.50699644     2.70100
O471        O  0.11531740  0.24537741  0.04228809    -0.80000
O472        O  0.13452226  0.26222672  0.46516557    -0.99100
Zr473      Zr  0.12224815  0.42624313  0.00841394     2.21500
Zr474      Zr  0.29959110  0.42744996  0.52141304     2.11100
O475        O  0.21816255  0.36165010  0.04108774    -2.47800
O476        O  0.13011341  0.36350614  0.03525197    -0.79800
O477        O  0.27024914  0.47165349  0.04969945    -0.72000
O478        O  0.14730797  0.37712105  0.48071734    -2.33000
O479        O  0.18365747  0.47052435  0.04389455    -2.29200
O480        O  0.23501846  0.37839028  0.48760310    -0.73800
H481        H  0.32170612  0.50981394  0.48340593     0.78200
H482        H  0.12195764  0.35849700  0.46686835     0.79300
H483        H  0.22183737  0.33585956  0.05054477     0.81500
H484        H  0.17305598  0.48973666  0.05570697     0.79200
H485        H  0.19395300  0.37115383  0.41231642     0.42200
H486        H  0.11220924  0.27079424  0.45464131     0.41200
H487        H  0.11684576  0.26356594  0.05981824     0.40800
H488        H  0.15316683  0.32532147  0.10945845     0.38800
H489        H  0.21856006  0.46608247  0.12065023     0.41900
H490        H  0.24713896  0.57731948  0.06760578     0.36700
H491        H  0.29988281  0.60112332  0.47999365     0.42800
H492        H  0.31101128  0.50219159  0.42208256     0.39200
H493        H  0.18497544  0.37539518  0.12698158     0.44100
H494        H  0.30172492  0.61610594  0.05462889     0.42900
H495        H  0.27325321  0.52366755  0.42314161     0.43000
H496        H  0.16758825  0.27793966  0.45422668     0.43400
O497        O  0.36994995  0.12644787  0.42063309    -0.75500
O498        O  0.42566809  0.10551389  0.43706351    -0.54400
C499        C  0.40136008  0.11058924  0.41685881     0.78200
O500        O  0.56201770  0.35737341  0.48620054    -0.60100
O501        O  0.50980844  0.38952404  0.49626471    -0.53100
C502        C  0.55525513  0.39538776  0.49146257     0.70200
O503        O  0.56459170  0.21212269  0.97339062    -0.74700
O504        O  0.50926935  0.12742039  0.98195756    -0.55200
C505        C  0.55339795  0.16451501  0.47920944     0.76200
O506        O  0.36568847  0.26789390  0.43900297    -0.59800
O507        O  0.42374351  0.34390996  0.45422145    -0.52900
C508        C  0.39773119  0.31490521  0.43412386     0.72800
Zr509      Zr  0.39962009  0.21119435  0.43734299     2.54700
O510        O  0.46822124  0.25382546  0.40191190    -0.80400
O511        O  0.34962387  0.19670035  0.39597359    -0.93800
Zr512      Zr  0.52643709  0.26643470  0.47938901     2.64700
O513        O  0.56939965  0.29568247  0.43398830    -0.98800
O514        O  0.60805411  0.30383107  0.00311874    -0.80800
O515        O  0.46409172  0.19599132  0.45433404    -0.84200
O516        O  0.46617547  0.28379279  0.46024915    -2.18900
O517        O  0.27603596  0.22067787  0.50799095    -0.67600
O518        O  0.34532119  0.30266957  0.50500139    -0.52100
C519        C  0.29638492  0.27073304  0.50777506     0.71200
O520        O  0.39114485  0.12763113  0.05568043    -0.60500
O521        O  0.42511835  0.08884155  0.03039858    -0.52500
C522        C  0.40635735  0.09535333  0.05370419     0.73000
O523        O  0.44955230  0.28990349  0.07137166    -0.71900
O524        O  0.43906880  0.34456643  0.04417458    -0.50500
C525        C  0.44674591  0.33008021  0.06773012     0.74400
O526        O  0.27808119  0.06108689  0.50483392    -0.67200
O527        O  0.34639829  0.04911644  0.99026194    -0.54400
C528        C  0.29939201  0.03254824  0.99856145     0.72800
Zr529      Zr  0.31199531  0.15926322  0.50529559     2.77500
O530        O  0.26695218  0.13538586  0.04878700    -0.97900
O531        O  0.23562567  0.12094306  0.47719341    -0.78800
Zr532      Zr  0.44289821  0.21801446  0.04626092     2.70100
O533        O  0.42259626  0.20980598  0.09595995    -0.80000
O534        O  0.52240558  0.23056168  0.06556887    -0.99100
Zr535      Zr  0.42331327  0.12715380  0.48697890     2.21500
Zr536      Zr  0.42630090  0.30517355  0.49823626     2.11100
O537        O  0.38006762  0.23458966  0.02856158    -2.47800
O538        O  0.38010391  0.14837488  0.02105669    -0.79800
O539        O  0.35910659  0.23089326  0.47471093    -0.72000
O540        O  0.48840345  0.20045788  0.01091665    -2.33000
O541        O  0.35664074  0.14117997  0.46928527    -2.29200
O542        O  0.48953119  0.28823412  0.01582394    -0.73800
H543        H  0.48492341  0.31214068  0.44762558     0.78200
H544        H  0.51280538  0.19305816  0.01902652     0.79300
H545        H  0.36355343  0.24328716  0.04348940     0.81500
H546        H  0.32904448  0.11027336  0.46140282     0.79200
H547        H  0.59839278  0.31022482  0.02199488     0.42200
H548        H  0.52994059  0.25537445  0.08087735     0.41200
H549        H  0.43896755  0.19136814  0.10337038     0.40800
H550        H  0.23032394  0.12073314  0.04402164     0.38800
H551        H  0.20647505  0.11107206  0.49073443     0.41900
H552        H  0.31398611  0.16980404  0.40149229     0.36700
H553        H  0.45066492  0.24907916  0.38423149     0.42800
H554        H  0.57873697  0.33207880  0.43289813     0.39200
H555        H  0.26932887  0.10546532  0.05463579     0.44100
H556        H  0.36155355  0.17976166  0.38234328     0.42900
H557        H  0.60285393  0.29711721  0.43560051     0.43000
H558        H  0.51232443  0.19771442  0.07489652     0.43400
C559        C  0.49330107  0.37136586  0.11036965    -0.09400
C560        C  0.45104040  0.35851620  0.09362643     0.06800
C561        C  0.40817017  0.35979957  0.10535764    -0.03100
C562        C  0.40864524  0.37491519  0.13311962    -0.08500
C563        C  0.45037760  0.38663591  0.15001652     0.05900
C564        C  0.49318985  0.38514303  0.13824792    -0.02600
Br565      Br  0.55291635  0.40258812  0.15923460    -0.02300
H566        H  0.52587086  0.36880680  0.10193342     0.09800
H567        H  0.37589824  0.37647903  0.14181200     0.07900
Br568      Br  0.34621198  0.33540064  0.08512560    -0.02700
C569        C  0.46589640  0.35486251  0.39683848    -0.09400
C570        C  0.41330065  0.33094418  0.40467844     0.06800
C571        C  0.37682219  0.31504432  0.38354038    -0.03100
C572        C  0.39361666  0.32715986  0.35555739    -0.07600
C573        C  0.44653442  0.35243358  0.34794151     0.05900
C574        C  0.48221804  0.36343842  0.36889943    -0.02600
Br575      Br  0.55457711  0.39243450  0.36006159    -0.02300
H576        H  0.49466110  0.36568291  0.41238350     0.09800
H577        H  0.36552051  0.31976769  0.34002383     0.07900
Br578      Br  0.30382884  0.27929733  0.39202260    -0.02700
C579        C  0.67987348  0.61256430  0.10882995    -0.09400
C580        C  0.64869429  0.57839787  0.08814939     0.06800
C581        C  0.59824572  0.53979248  0.09532474    -0.03100
C582        C  0.58103140  0.53366272  0.12308492    -0.07600
C583        C  0.61351730  0.56556198  0.14413006     0.05900
C584        C  0.66287387  0.60632280  0.13663533    -0.02600
Br585      Br  0.70825887  0.65462101  0.16318901    -0.02300
H586        H  0.71908830  0.64243780  0.10352511     0.09800
H587        H  0.54234986  0.50265383  0.12836671     0.07900
Br588      Br  0.55353718  0.49177134  0.06846704    -0.02700
C589        C  0.70770918  0.61577818  0.37456100    -0.09400
C590        C  0.67342253  0.58811760  0.39704660     0.06800
C591        C  0.62408062  0.54702155  0.39071572    -0.03100
C592        C  0.61149310  0.53330953  0.36303800    -0.07600
C593        C  0.64676712  0.55870469  0.34054385     0.05900
C594        C  0.69525365  0.60132769  0.34673640    -0.02600
Br595      Br  0.74723138  0.63992348  0.31866794    -0.02300
H596        H  0.74542525  0.64838546  0.37858016     0.09800
H597        H  0.57302161  0.50177059  0.35927743     0.07900
Br598      Br  0.57179480  0.50586562  0.41827949    -0.02700
C599        C  0.52089648  0.62064587  0.14310199    -0.09400
C600        C  0.55143552  0.65132542  0.16512603     0.06800
C601        C  0.60176804  0.69180778  0.15856785    -0.03100
C602        C  0.61876694  0.70255562  0.13068207    -0.07600
C603        C  0.58666984  0.67372929  0.10876399     0.05900
C604        C  0.53810678  0.63076964  0.11545864    -0.02600
Br605      Br  0.49089286  0.58621657  0.08819191    -0.02300
H606        H  0.48263902  0.58794289  0.14716652     0.09800
H607        H  0.65649929  0.73565605  0.12603737     0.07900
Br608      Br  0.64859122  0.73520338  0.18618019    -0.02700
C609        C  0.53315038  0.64110126  0.40945169    -0.09400
C610        C  0.58360238  0.66361289  0.41884573     0.06800
C611        C  0.62518812  0.67887447  0.39948444    -0.03100
C612        C  0.61545095  0.66863357  0.37127960    -0.07600
C613        C  0.56493429  0.64664152  0.36191198     0.05900
C614        C  0.52388086  0.63401174  0.38112231    -0.02600
Br615      Br  0.45449674  0.60664513  0.36922971    -0.02300
H616        H  0.50121089  0.63152574  0.42404723     0.09800
H617        H  0.64709885  0.67682184  0.35672364     0.07900
Br618      Br  0.69567497  0.71428587  0.41074192    -0.02700
C619        C  0.29684749  0.39329191  0.13965988    -0.09400
C620        C  0.31196468  0.43214431  0.11964922     0.06800
C621        C  0.32997110  0.48266394  0.12875170    -0.03100
C622        C  0.33467758  0.49367773  0.15712818    -0.07600
C623        C  0.32569815  0.45598758  0.17695414     0.05900
C624        C  0.30509640  0.40497125  0.16795429    -0.02600
Br625      Br  0.29418517  0.35122248  0.19276522    -0.02300
H626        H  0.28029075  0.35373675  0.13309775     0.09800
H627        H  0.35147774  0.53338525  0.16351248     0.07900
Br628      Br  0.34870690  0.53827120  0.10350524    -0.02700
C629        C  0.41380519  0.48229166  0.39419972    -0.09400
C630        C  0.38165040  0.45732211  0.37164309     0.06800
C631        C  0.33223334  0.41477959  0.37723529    -0.03100
C632        C  0.31570199  0.39941719  0.40474321    -0.07600
C633        C  0.34672771  0.42633100  0.42735047     0.05900
C634        C  0.39692388  0.46773167  0.42169066    -0.02600
Br635      Br  0.44420968  0.50766569  0.45001958    -0.02300
H636        H  0.45284190  0.51387597  0.39048965     0.09800
H637        H  0.27752529  0.36640848  0.40844771     0.07900
Br638      Br  0.28642322  0.37446202  0.34852159    -0.02700
C639        C  0.92435786  0.57116021  0.13404814    -0.09400
C640        C  0.93396838  0.53057617  0.13507441     0.06800
C641        C  0.94465525  0.51297345  0.10935848    -0.03100
C642        C  0.93861286  0.53093480  0.08394798    -0.07600
C643        C  0.92579062  0.56915266  0.08321576     0.05900
C644        C  0.92296149  0.59203298  0.10862156    -0.02600
Br645      Br  0.91822997  0.65294146  0.10965208    -0.02300
H646        H  0.91976248  0.58807852  0.15311160     0.09800
H647        H  0.94146210  0.51314193  0.06478311     0.07900
Br648      Br  0.96714234  0.46417703  0.10632344    -0.02700
C649        C  0.85157254  0.49722234  0.35449479    -0.09400
C650        C  0.87940066  0.53151382  0.33255365     0.06800
C651        C  0.91221504  0.58369465  0.33890940    -0.03100
C652        C  0.91965166  0.59952305  0.36677403    -0.07600
C653        C  0.89541950  0.56401482  0.38873523     0.05900
C654        C  0.85985258  0.51266958  0.38216446    -0.02600
Br655      Br  0.81918504  0.46201585  0.40988911    -0.02300
H656        H  0.82585836  0.45690765  0.35011138     0.09800
H657        H  0.94445382  0.63988036  0.37136470     0.07900
Br658      Br  0.94987657  0.63418788  0.31058688    -0.02700
C659        C  0.86021200  0.34729192  0.10416941    -0.09400
C660        C  0.88849788  0.33353788  0.08572299     0.06800
C661        C  0.92496189  0.32264549  0.09645250    -0.03100
C662        C  0.93567570  0.33008734  0.12471309    -0.07600
C663        C  0.90957285  0.34685517  0.14270911     0.05900
C664        C  0.87050495  0.35407953  0.13240668    -0.02600
Br665      Br  0.83477062  0.37958918  0.15527319    -0.02300
H666        H  0.83106510  0.35449885  0.09643451     0.09800
H667        H  0.96507472  0.32359325  0.13266200     0.07900
Br668      Br  0.95827878  0.29390539  0.07425813    -0.02700
C669        C  0.89801959  0.36467633  0.36240557    -0.09400
C670        C  0.90364607  0.33492527  0.34108321     0.06800
C671        C  0.91606639  0.29783241  0.34874603    -0.03100
C672        C  0.92430711  0.29284953  0.37679141    -0.07600
C673        C  0.91818492  0.32263322  0.39777621     0.05900
C674        C  0.90468738  0.35873474  0.39014959    -0.02600
Br675      Br  0.88889866  0.39759819  0.41644403    -0.02300
H676        H  0.88771704  0.39319198  0.35776427     0.09800
H677        H  0.93340675  0.26387783  0.38240931     0.07900
Br678      Br  0.91824284  0.25041183  0.32266434    -0.02700
C679        C  0.10145895  0.47612921  0.13867241    -0.09400
C680        C  0.09663728  0.44180301  0.15975836     0.06800
C681        C  0.08033236  0.39073162  0.15194649    -0.03100
C682        C  0.07135817  0.37616471  0.12388943    -0.07600
C683        C  0.07765481  0.41107857  0.10290434     0.05900
C684        C  0.09111365  0.46110076  0.11092633    -0.02600
Br685      Br  0.09711077  0.51133348  0.08507283    -0.02300
H686        H  0.11252794  0.51531332  0.14376879     0.09800
H687        H  0.06003359  0.33707186  0.11832705     0.07900
Br688      Br  0.06807345  0.33846624  0.17821151    -0.02700
C689        C  0.07715050  0.47784428  0.37706104    -0.09400
C690        C  0.06533636  0.43833015  0.35769844     0.06800
C691        C  0.06719142  0.39496590  0.36591599    -0.03100
C692        C  0.07846338  0.39072027  0.39335974    -0.07600
C693        C  0.08954044  0.42996366  0.41280372     0.05900
C694        C  0.08983618  0.47425643  0.40428159    -0.02600
Br695      Br  0.11374247  0.53305743  0.42807946    -0.02300
H696        H  0.07836140  0.51255469  0.37062103     0.09800
H697        H  0.08112034  0.35772397  0.39922824     0.07900
Br698      Br  0.05683814  0.34184314  0.34020509    -0.02700
C699        C  0.12753712  0.63281880  0.13667388    -0.09400
C700        C  0.09679445  0.63814993  0.15754607     0.06800
C701        C  0.06531956  0.65809365  0.15039466    -0.03100
C702        C  0.06336152  0.66993202  0.12263479    -0.07600
C703        C  0.09251122  0.66235165  0.10159837     0.05900
C704        C  0.12604074  0.64511508  0.10908471    -0.02600
Br705      Br  0.17428491  0.64200001  0.08313229    -0.02300
H706        H  0.15122704  0.61667430  0.14173579     0.09800
H707        H  0.03970723  0.68605703  0.11748297     0.07900
Br708      Br  0.02279884  0.66785618  0.17756512    -0.02700
C709        C  0.04460075  0.60496173  0.40589024    -0.09400
C710        C  0.07628476  0.65808073  0.40656363     0.06800
C711        C  0.08592156  0.68576677  0.38130540    -0.03100
C712        C  0.07137737  0.65990334  0.35586218    -0.07600
C713        C  0.04355101  0.60626779  0.35480418     0.05900
C714        C  0.02701026  0.57914594  0.38067021    -0.02600
Br715      Br  0.98080493  0.50683780  0.38444023    -0.02300
H716        H  0.03506025  0.58307092  0.42496228     0.09800
H717        H  0.08150013  0.68199041  0.33684142     0.07900
Br718      Br  0.11696624  0.75912976  0.38001265    -0.02700
C719        C  0.34739135  0.86630830  0.10419287    -0.09400
C720        C  0.32433615  0.89619120  0.10122382     0.06800
C721        C  0.30890908  0.91238868  0.12553120    -0.03100
C722        C  0.32103763  0.90259201  0.15182981    -0.07600
C723        C  0.34581211  0.87404525  0.15461363     0.05900
C724        C  0.35585873  0.85341671  0.13039373    -0.02600
Br725      Br  0.37744080  0.80414437  0.13199645    -0.02300
H726        H  0.35740569  0.85118459  0.08608887     0.09800
H727        H  0.31344195  0.91960523  0.16999621     0.07900
Br728      Br  0.27374767  0.95026463  0.12395907    -0.02700
C729        C  0.35827250  0.85788354  0.39247226    -0.09400
C730        C  0.35329293  0.89300646  0.41006412     0.06800
C731        C  0.35141459  0.93393256  0.39778817    -0.03100
C732        C  0.35771166  0.94072046  0.36886113    -0.07600
C733        C  0.36407660  0.90627647  0.35144319     0.05900
C734        C  0.36285640  0.86374143  0.36357791    -0.02600
Br735      Br  0.37116861  0.81455357  0.34185456    -0.02300
H736        H  0.35856490  0.82530442  0.40125566     0.09800
H737        H  0.35932527  0.97410365  0.35990781     0.07900
Br738      Br  0.33728347  0.97960970  0.41917443    -0.02700
C739        C  0.62784765  0.94507926  0.14367962    -0.09400
C740        C  0.58119501  0.90588176  0.15573873     0.06800
C741        C  0.54534795  0.86795424  0.13826142    -0.03100
C742        C  0.55123667  0.87436245  0.10945232    -0.07600
C743        C  0.59661933  0.91446724  0.09725823     0.05900
C744        C  0.63663694  0.94795292  0.11469431    -0.02600
Br745      Br  0.70296431  0.99847546  0.09954265    -0.02300
H746        H  0.65604047  0.97513911  0.15662730     0.09800
H747        H  0.52111431  0.84659944  0.09654600     0.07900
Br748      Br  0.48648078  0.80823193  0.15385707    -0.02700
C749        C  0.54929764  0.94008452  0.40375299    -0.09400
C750        C  0.58327097  0.92174340  0.40583271     0.06800
C751        C  0.61173697  0.92212818  0.38158741    -0.03100
C752        C  0.60095265  0.93407383  0.35553635    -0.07600
C753        C  0.56370293  0.94849471  0.35294073     0.05900
C754        C  0.53979734  0.95405961  0.37798971    -0.02600
Br755      Br  0.49127520  0.97769986  0.37980603    -0.02300
H756        H  0.52770335  0.94087713  0.42208395     0.09800
H757        H  0.62213163  0.93238465  0.33726345     0.07900
Br758      Br  0.66757699  0.90873779  0.38306053    -0.02700
C759        C  0.58863636  0.09642061  0.11301210    -0.09400
C760        C  0.61805344  0.09444189  0.13451196     0.06800
C761        C  0.66612316  0.09920847  0.12778708    -0.03100
C762        C  0.68199316  0.10175054  0.09998377    -0.07600
C763        C  0.65066609  0.09914286  0.07823476     0.05900
C764        C  0.60450321  0.09890652  0.08505323    -0.02600
Br765      Br  0.56283163  0.10411508  0.05753954    -0.02300
H766        H  0.55205649  0.09410012  0.11802710     0.09800
H767        H  0.71879807  0.10436673  0.09538859     0.07900
Br768      Br  0.70946404  0.09744235  0.15541008    -0.02700
C769        C  0.60904836  0.10430193  0.35596366    -0.09400
C770        C  0.63497765  0.10031601  0.33183440     0.06800
C771        C  0.67666223  0.09205928  0.33529993    -0.03100
C772        C  0.69217457  0.08992725  0.36216277    -0.07600
C773        C  0.66648256  0.09484416  0.38613890     0.05900
C774        C  0.62364109  0.10095171  0.38258699    -0.02600
Br775      Br  0.58454050  0.10834206  0.41281857    -0.02300
H776        H  0.57628911  0.10976676  0.35434893     0.09800
H777        H  0.72545727  0.08546910  0.36428987     0.07900
Br778      Br  0.71367848  0.08252703  0.30472850    -0.02700
C779        C  0.42971376  0.04138652  0.08152122    -0.09400
C780        C  0.40316662  0.06796796  0.07983251     0.06800
C781        C  0.37934465  0.07384633  0.10459236    -0.03100
C782        C  0.39055921  0.06215736  0.13044253    -0.07600
C783        C  0.42088559  0.03948254  0.13246346     0.05900
C784        C  0.43721560  0.02547894  0.10719337    -0.02600
Br785      Br  0.47019988  0.98494632  0.10478630    -0.02300
H786        H  0.44564931  0.03369324  0.06278815     0.09800
H787        H  0.37400698  0.06943648  0.14906975     0.07900
Br788      Br  0.32745874  0.09334284  0.10506222    -0.02700
C789        C  0.37044567  0.07734133  0.36991871    -0.09400
C790        C  0.41233473  0.10431022  0.38750320     0.06800
C791        C  0.46191400  0.13583506  0.37545529    -0.03100
C792        C  0.46929293  0.13694794  0.34660073    -0.07600
C793        C  0.42826624  0.10544335  0.32917964     0.05900
C794        C  0.37816993  0.07709786  0.34109778    -0.02600
Br795      Br  0.32017377  0.03295739  0.31912541    -0.02300
H796        H  0.33148256  0.05559405  0.37872731     0.09800
H797        H  0.50840005  0.15840172  0.33789458     0.07900
Br798      Br  0.52067281  0.17902764  0.39728150    -0.02700
O799        O  0.42757251  0.08127136  0.77861715    -0.75500
O800        O  0.46179662  0.05611458  0.81193378    -0.54400
C801        C  0.43837568  0.07842792  0.80408410     0.78200
O802        O  0.35671060  0.87505057  0.70290866    -0.60100
O803        O  0.42669002  0.89581394  0.67540528    -0.53100
C804        C  0.37838587  0.87861276  0.67864231     0.70200
O805        O  0.36795105  0.89209064  0.80088958    -0.74700
O806        O  0.42955298  0.96157499  0.82359350    -0.55200
C807        C  0.38743586  0.91878457  0.82315931     0.76200
O808        O  0.42872052  0.04783620  0.68188323    -0.59800
O809        O  0.45184090  0.99459024  0.66094380    -0.52900
C810        C  0.43297693  0.02368454  0.66019187     0.72800
Zr811      Zr  0.44666258  0.05248941  0.73303815     2.54700
O812        O  0.36088590  0.04126865  0.72966633    -0.80400
O813        O  0.48208039  0.14256445  0.72140993    -0.93800
Zr814      Zr  0.39345639  0.90271052  0.75017231     2.64700
O815        O  0.30229529  0.87729929  0.75401273    -0.98800
O816        O  0.36545886  0.81187821  0.75248000    -0.80800
O817        O  0.42575112  0.98650311  0.76347405    -0.84200
O818        O  0.41643032  0.96850178  0.71668092    -2.18900
O819        O  0.61801223  0.09350848  0.68539245    -0.67600
O820        O  0.55117645  0.03110395  0.66157835    -0.52100
C821        C  0.59567686  0.07131389  0.66264715     0.71200
O822        O  0.55652503  0.93273108  0.80276650    -0.60500
O823        O  0.52869017  0.98139569  0.82476957    -0.52500
C824        C  0.54807843  0.95260455  0.82505571     0.73000
O825        O  0.56945975  0.91148493  0.70625747    -0.71900
O826        O  0.53400971  0.93534115  0.67299564    -0.50500
C827        C  0.56137685  0.91696826  0.68063452     0.74400
O828        O  0.63065252  0.09602761  0.78226801    -0.67200
O829        O  0.56398140  0.08317560  0.81048531    -0.54400
C830        C  0.61111696  0.09633021  0.80653104     0.72800
Zr831      Zr  0.59285238  0.08167120  0.73574306     2.77500
O832        O  0.68663041  0.12292504  0.73072623    -0.97900
O833        O  0.61273017  0.17036675  0.73700428    -0.78800
Zr834      Zr  0.54139132  0.93242307  0.75182166     2.70100
O835        O  0.62500193  0.94031424  0.75871992    -0.80000
O836        O  0.50393458  0.84011722  0.75708422    -0.99100
Zr837      Zr  0.49508813  0.00952255  0.78985654     2.21500
Zr838      Zr  0.49169851  0.97388932  0.69548221     2.11100
O839        O  0.57026855  0.99951511  0.71819284    -2.47800
O840        O  0.56250957  0.01333541  0.76531375    -0.79800
O841        O  0.51711941  0.05267509  0.71329832    -0.72000
O842        O  0.46708014  0.92348999  0.77675601    -2.33000
O843        O  0.52172524  0.08064883  0.75977003    -2.29200
O844        O  0.46796239  0.91295559  0.72863745    -0.73800
H845        H  0.38893972  0.96132456  0.70443244     0.78200
H846        H  0.45802128  0.90074398  0.79241554     0.79300
H847        H  0.59865463  0.00350398  0.70623944     0.81500
H848        H  0.53142345  0.11220229  0.76953070     0.79200
H849        H  0.32733587  0.79443454  0.75476525     0.42200
H850        H  0.47443423  0.82944405  0.77047810     0.41200
H851        H  0.64987058  0.97086192  0.74770124     0.40800
H852        H  0.69290361  0.09855351  0.71975132     0.38800
H853        H  0.61671454  0.18051825  0.71724799     0.41900
H854        H  0.51851089  0.15982141  0.72693035     0.36700
H855        H  0.33688399  0.00438477  0.73353876     0.42800
H856        H  0.28854173  0.85748614  0.77149195     0.39200
H857        H  0.69731733  0.15243696  0.71813543     0.44100
H858        H  0.46514731  0.15469334  0.73502739     0.42900
H859        H  0.30233306  0.90964451  0.75755461     0.43000
H860        H  0.48783545  0.82542300  0.73914638     0.43400
O861        O  0.05532244  0.60789892  0.80468914    -0.75500
O862        O  0.99413688  0.53723619  0.82782030    -0.54400
C863        C  0.02985003  0.58410704  0.82730477     0.78200
O864        O  0.91053828  0.52086570  0.68599467    -0.60100
O865        O  0.96995305  0.50748458  0.66300018    -0.53100
C866        C  0.93569787  0.52051703  0.66345022     0.70200
O867        O  0.89069009  0.52841787  0.78322197    -0.74700
O868        O  0.88895590  0.46898200  0.81083875    -0.55200
C869        C  0.88413218  0.50763013  0.80736976     0.76200
O870        O  0.08649235  0.62656039  0.70721256    -0.59800
O871        O  0.06146270  0.56313823  0.67476391    -0.52900
C872        C  0.08317507  0.61010874  0.68188217     0.72800
Zr873      Zr  0.05636593  0.58570284  0.75416731     2.54700
O874        O  0.05881694  0.66737434  0.75705699    -0.80400
O875        O  0.14953115  0.63340015  0.75972695    -0.93800
Zr876      Zr  0.90588792  0.49914231  0.73695918     2.64700
O877        O  0.87304030  0.55720103  0.73064709    -0.98800
O878        O  0.81371136  0.43814996  0.73358205    -0.80800
O879        O  0.97168473  0.53424955  0.76764236    -0.84200
O880        O  0.99165556  0.54912146  0.72014032    -2.18900
O881        O  0.09810847  0.44090742  0.71057503    -0.67600
O882        O  0.09373397  0.50366034  0.69210268    -0.52100
C883        C  0.09883745  0.46508487  0.68880421     0.71200
O884        O  0.91600142  0.33635976  0.78883530    -0.60500
O885        O  0.89590785  0.38908756  0.80985447    -0.52500
C886        C  0.90492654  0.35285844  0.81130678     0.73000
O887        O  0.90625830  0.35086897  0.69207872    -0.71900
O888        O  0.97368399  0.41547072  0.66753136    -0.50500
C889        C  0.93204750  0.37165652  0.66932222     0.74400
O890        O  0.07162006  0.44530560  0.80698640    -0.67200
O891        O  0.00833681  0.45331153  0.83003071    -0.54400
C892        C  0.04686762  0.44612738  0.82941400     0.72800
Zr893      Zr  0.06918167  0.45866247  0.75643363     2.77500
O894        O  0.08332792  0.38754652  0.76439682    -0.97900
O895        O  0.16155529  0.51715789  0.76142736    -0.78800
Zr896      Zr  0.91850086  0.37119380  0.74179192     2.70100
O897        O  0.91738803  0.29162320  0.73104998    -0.80000
O898        O  0.82536482  0.31477756  0.74807747    -0.99100
Zr899      Zr  0.96457280  0.47017997  0.79479472     2.21500
Zr900      Zr  0.00776184  0.48652534  0.69912979     2.11100
O901        O  0.00376267  0.41561445  0.72259631    -2.47800
O902        O  0.98448355  0.41701523  0.77097517    -0.79800
O903        O  0.06661953  0.52287277  0.73288703    -0.72000
O904        O  0.89526553  0.42830663  0.76345471    -2.33000
O905        O  0.05371576  0.51919237  0.78104576    -2.29200
O906        O  0.92700360  0.44151217  0.71855201    -0.73800
H907        H  0.99369776  0.57486276  0.70780926     0.78200
H908        H  0.86081431  0.40999871  0.77170838     0.79300
H909        H  0.00808465  0.39214220  0.71057306     0.81500
H910        H  0.07593470  0.53336496  0.79664309     0.79200
H911        H  0.81164847  0.41177251  0.72041850     0.42200
H912        H  0.81782104  0.31684505  0.76807065     0.41200
H913        H  0.95387660  0.30213976  0.72657043     0.40800
H914        H  0.05957967  0.36018846  0.75177681     0.38800
H915        H  0.17413445  0.53443240  0.74319001     0.41900
H916        H  0.15369318  0.63962750  0.77995019     0.36700
H917        H  0.02277582  0.65806992  0.76180897     0.42800
H918        H  0.90061671  0.58649835  0.71984487     0.39200
H919        H  0.11829407  0.39909101  0.75624416     0.44100
H920        H  0.16107325  0.66762837  0.75169781     0.42900
H921        H  0.84445264  0.53928964  0.71763682     0.43000
H922        H  0.81006350  0.33237262  0.73853335     0.43400
O923        O  0.53815111  0.63668672  0.81319330    -0.75500
O924        O  0.54271938  0.57343968  0.83559820    -0.54400
C925        C  0.54639541  0.61718923  0.83469427     0.78200
O926        O  0.33970526  0.45422741  0.72712419    -0.60100
O927        O  0.40074944  0.48851712  0.69232066    -0.53100
C928        C  0.35426515  0.46582052  0.70130091     0.70200
O929        O  0.37460644  0.46078908  0.82286402    -0.74700
O930        O  0.45116761  0.48283722  0.84205308    -0.55200
C931        C  0.40288734  0.46635298  0.84385152     0.76200
O932        O  0.54644055  0.64513564  0.71570536    -0.59800
O933        O  0.47865102  0.58373224  0.69466552    -0.52900
C934        C  0.52126426  0.62545008  0.69346463     0.72800
Zr935      Zr  0.51851040  0.61188231  0.76380146     2.54700
O936        O  0.45963843  0.64508574  0.76438009    -0.80400
O937        O  0.57872504  0.70400469  0.76722137    -0.93800
Zr938      Zr  0.38738783  0.47344926  0.77132694     2.64700
O939        O  0.33921887  0.51719721  0.78094668    -0.98800
O940        O  0.30537842  0.39409802  0.77917521    -0.80800
O941        O  0.46360180  0.53816543  0.78797594    -0.84200
O942        O  0.44173515  0.54631299  0.74338687    -2.18900
O943        O  0.61536562  0.56034643  0.69368403    -0.67600
O944        O  0.53858984  0.53647452  0.67436566    -0.52100
C945        C  0.58697331  0.55360667  0.67257008     0.71200
O946        O  0.45733951  0.36548511  0.79957313    -0.60500
O947        O  0.49228309  0.43162106  0.83025718    -0.52500
C948        C  0.46885234  0.38397301  0.82448905     0.73000
O949        O  0.45737217  0.38159913  0.70156434    -0.71900
O950        O  0.45338680  0.44487578  0.67890813    -0.50500
C951        C  0.45252529  0.40242722  0.67941823     0.74400
O952        O  0.64816821  0.56851674  0.78958136    -0.67200
O953        O  0.58592769  0.50049989  0.81067113    -0.54400
C954        C  0.62798209  0.54259197  0.81205418     0.72800
Zr955      Zr  0.60169192  0.54397023  0.74487533     2.77500
O956        O  0.64518402  0.49502262  0.73746489    -0.97900
O957        O  0.68734738  0.61813357  0.73587192    -0.78800
Zr958      Zr  0.46962296  0.40386873  0.75198715     2.70100
O959        O  0.52414189  0.36575575  0.74812492    -0.80000
O960        O  0.39556023  0.31714271  0.74862957    -0.99100
Zr961      Zr  0.50981388  0.50419394  0.80421230     2.21500
Zr962      Zr  0.47844798  0.51094164  0.71212267     2.11100
O963        O  0.52930480  0.47445375  0.72336137    -2.47800
O964        O  0.54044052  0.47377784  0.77007164    -0.79800
O965        O  0.54889696  0.57411521  0.73309202    -0.72000
O966        O  0.43325091  0.43464731  0.78631215    -2.33000
O967        O  0.57088201  0.58032403  0.77975631    -2.29200
O968        O  0.42545204  0.44384678  0.74001483    -0.73800
H969        H  0.42172973  0.55915670  0.73487917     0.78200
H970        H  0.41089325  0.40894768  0.79965911     0.79300
H971        H  0.54108392  0.46344702  0.70724943     0.81500
H972        H  0.59799532  0.60680149  0.79060623     0.79200
H973        H  0.31504136  0.36894003  0.78499550     0.42200
H974        H  0.37838119  0.30954990  0.76729631     0.41200
H975        H  0.50965982  0.33811471  0.76226035     0.40800
H976        H  0.63049609  0.46836003  0.75212860     0.38800
H977        H  0.70998746  0.60347067  0.73249642     0.41900
H978        H  0.60718376  0.70746419  0.77850534     0.36700
H979        H  0.46269928  0.65829160  0.74531860     0.42800
H980        H  0.30268110  0.49041591  0.77830390     0.39200
H981        H  0.63125828  0.47600506  0.72000222     0.44100
H982        H  0.56058415  0.71717034  0.77925929     0.42900
H983        H  0.34145235  0.52336297  0.80120876     0.43000
H984        H  0.37137553  0.32046262  0.73665046     0.43400
O985        O  0.79062367  0.43590325  0.48566137    -0.75500
O986        O  0.87701631  0.49009277  0.48775079    -0.54400
C987        C  0.83682435  0.44399367  0.48658524     0.78200
O988        O  0.74311190  0.62948971  0.92842381    -0.60100
O989        O  0.66569031  0.57717464  0.94729272    -0.53100
C990        C  0.69455146  0.60045425  0.92587130     0.70200
O991        O  0.88402309  0.61954923  0.91870715    -0.74700
O992        O  0.90382087  0.56654844  0.93935306    -0.55200
C993        C  0.89787547  0.58650843  0.91727246     0.76200
O994        O  0.64674869  0.43853061  0.98554043    -0.59800
O995        O  0.61519660  0.49196219  0.99221978    -0.52900
C996        C  0.60882965  0.44645064  0.98871422     0.72800
Zr997      Zr  0.73542762  0.47218949  0.48664987     2.54700
O998        O  0.71111054  0.41219774  0.94637191    -0.80400
O999        O  0.69858367  0.40159493  0.51993301    -0.93800
Zr1000     Zr  0.79741653  0.59300227  0.93386987     2.64700
O1001       O  0.75441716  0.52366148  0.90056199    -0.98800
O1002       O  0.82137105  0.63710002  0.88928342    -0.80800
O1003       O  0.81035731  0.53143744  0.95682992    -0.84200
O1004       O  0.72267233  0.52983157  0.95878006    -2.18900
O1005       O  0.71712693  0.57869662  0.56832985    -0.67600
O1006       O  0.65845327  0.57480133  0.53837511    -0.52100
C1007       C  0.67552306  0.57810739  0.56295756     0.71200
O1008       O  0.94415703  0.72527399  0.99834093    -0.60500
O1009       O  0.95584783  0.65492273  0.48989866    -0.52500
C1010       C  0.97265976  0.70294691  0.49451770     0.73000
O1011       O  0.78627025  0.72583646  0.99779128    -0.71900
O1012       O  0.70433633  0.65696249  0.99423988    -0.50500
C1013       C  0.73609080  0.70550472  0.99675109     0.74400
O1014       O  0.87612751  0.60967162  0.55807616    -0.67200
O1015       O  0.90792072  0.56780504  0.53373191    -0.54400
C1016       C  0.90090827  0.58574558  0.55697625     0.72800
Zr1017     Zr  0.78601827  0.57008653  0.54743184     2.77500
O1018       O  0.79934399  0.59545047  0.59609853    -0.97900
O1019       O  0.75720934  0.48953261  0.57167623    -0.78800
Zr1020     Zr  0.84648771  0.68879710  0.99657737     2.70100
O1021       O  0.87435356  0.74608417  0.53509585    -0.80000
O1022       O  0.88526036  0.75859435  0.96288817    -0.99100
Zr1023     Zr  0.87648040  0.57375624  0.48806896     2.21500
Zr1024     Zr  0.70006008  0.57544708  0.99231027     2.11100
O1025       O  0.77050428  0.62781958  0.52258986    -2.47800
O1026       O  0.85822632  0.62661461  0.51921084    -0.79800
O1027       O  0.71506314  0.51893360  0.51923276    -0.72000
O1028       O  0.86638393  0.63930821  0.96508772    -2.33000
O1029       O  0.80345366  0.51810702  0.51711776    -2.29200
O1030       O  0.77629319  0.63890177  0.96668856    -0.73800
H1031       H  0.69486563  0.51036190  0.94632389     0.78200
H1032       H  0.89828026  0.66569792  0.95649112     0.79300
H1033       H  0.76225873  0.64801832  0.53513645     0.81500
H1034       H  0.81022042  0.49540499  0.52763574     0.79200
H1035       H  0.84174491  0.67398755  0.89404476     0.42200
H1036       H  0.85874138  0.74851300  0.94873542     0.41200
H1037       H  0.87024352  0.72396172  0.55104273     0.40800
H1038       H  0.79804749  0.62749228  0.59742977     0.38800
H1039       H  0.72120616  0.47818578  0.57792660     0.41900
H1040       H  0.67653320  0.40865324  0.53284797     0.36700
H1041       H  0.67861956  0.38215334  0.95343967     0.42800
H1042       H  0.72657212  0.52817095  0.89332112     0.39200
H1043       H  0.76813519  0.56950999  0.60657681     0.44100
H1044       H  0.72781290  0.40714913  0.53123666     0.42900
H1045       H  0.77955902  0.53298888  0.88474881     0.43000
H1046       H  0.88587598  0.78792840  0.97267892     0.43400
O1047       O  0.64262245  0.21030486  0.47808471    -0.75500
O1048       O  0.60996605  0.12465450  0.48218522    -0.54400
C1049       C  0.60410635  0.16428097  0.47954902     0.78200
O1050       O  0.89474352  0.25644339  0.93066827    -0.60100
O1051       O  0.92358994  0.33496922  0.94608859    -0.53100
C1052       C  0.91620473  0.30421625  0.92580605     0.70200
O1053       O  0.73942102  0.12361618  0.91456084    -0.74700
O1054       O  0.66438492  0.10169368  0.93707130    -0.55200
C1055       C  0.69144606  0.10829868  0.91449723     0.76200
O1056       O  0.79348804  0.35669138  0.98308695    -0.59800
O1057       O  0.87864973  0.38755873  0.98891702    -0.52900
C1058       C  0.83965526  0.39449316  0.98589053     0.72800
Zr1059     Zr  0.73449870  0.26385069  0.48138006     2.54700
O1060       O  0.71352207  0.30333893  0.94481118    -0.80400
O1061       O  0.69685700  0.29691070  0.51544711    -0.93800
Zr1062     Zr  0.80183667  0.20677267  0.93168636     2.64700
O1063       O  0.78625273  0.25366429  0.89641602    -0.98800
O1064       O  0.82812322  0.18289431  0.88826616    -0.80800
O1065       O  0.72438846  0.19480430  0.95381622    -0.84200
O1066       O  0.81171857  0.28038559  0.95614185    -2.18900
O1067       O  0.82652365  0.30342031  0.55116844    -0.67600
O1068       O  0.90716376  0.33481062  0.53655577    -0.52100
C1069       C  0.87391461  0.32347878  0.55655576     0.71200
O1070       O  0.77925112  0.06003169  0.99745279    -0.60500
O1071       O  0.69947425  0.04652336  0.48855498    -0.52500
C1072       C  0.73107487  0.03048678  0.49350435     0.73000
O1073       O  0.93842934  0.21686384  0.99992058    -0.71900
O1074       O  0.95305072  0.29821976  0.99477926    -0.50500
C1075       C  0.96914734  0.26673411  0.99860705     0.74400
O1076       O  0.72153055  0.12063299  0.54539952    -0.67200
O1077       O  0.64535784  0.08753801  0.52799162    -0.54400
C1078       C  0.67310106  0.09982789  0.54940550     0.72800
Zr1079     Zr  0.77340003  0.21236965  0.54488580     2.77500
O1080       O  0.80717269  0.20167958  0.58782883    -0.97900
O1081       O  0.71450845  0.21636056  0.57959221    -0.78800
Zr1082     Zr  0.84048532  0.15700151  0.99619600     2.70100
O1083       O  0.86160820  0.12402025  0.53402177    -0.80000
O1084       O  0.88128830  0.12464877  0.96373250    -0.99100
Zr1085     Zr  0.69426040  0.12384353  0.48431187     2.21500
Zr1086     Zr  0.87600342  0.30207597  0.99030165     2.11100
O1087       O  0.85176234  0.23022548  0.52116041    -2.47800
O1088       O  0.76254401  0.14386414  0.51603861    -0.79800
O1089       O  0.79655488  0.28278052  0.51488311    -0.72000
O1090       O  0.77469233  0.13724153  0.96313605    -2.33000
O1091       O  0.70771164  0.19520636  0.51300534    -2.29200
O1092       O  0.86470742  0.22695881  0.96547705    -0.73800
H1093       H  0.82174802  0.30805526  0.94354573     0.78200
H1094       H  0.76961378  0.10672729  0.95370279     0.79300
H1095       H  0.87805657  0.23852414  0.53443955     0.81500
H1096       H  0.67634047  0.18805235  0.52304094     0.79200
H1097       H  0.85162534  0.17087084  0.89379509     0.42200
H1098       H  0.86457882  0.08751507  0.96781741     0.41200
H1099       H  0.84859360  0.13517508  0.55023708     0.40800
H1100       H  0.84456628  0.21605484  0.58390211     0.38800
H1101       H  0.70352674  0.23880548  0.57121146     0.41900
H1102       H  0.72422778  0.31567160  0.52901285     0.36700
H1103       H  0.72435202  0.29298171  0.92744107     0.42800
H1104       H  0.81082006  0.25870064  0.88085339     0.39200
H1105       H  0.80510906  0.22599637  0.60106458     0.44100
H1106       H  0.67002753  0.26640231  0.52579200     0.42900
H1107       H  0.75201603  0.22836776  0.88930390     0.43000
H1108       H  0.86842302  0.12632274  0.94540224     0.43400
O1109       O  0.35653206  0.79240227  0.51024169    -0.75500
O1110       O  0.38980276  0.87820738  0.50597193    -0.54400
C1111       C  0.39516027  0.83828794  0.50817878     0.78200
O1112       O  0.15094025  0.72401963  0.92707864    -0.60100
O1113       O  0.08880539  0.66789252  0.95741627    -0.53100
C1114       C  0.10629506  0.68568448  0.93250566     0.70200
O1115       O  0.31796113  0.82914640  0.94582526    -0.74700
O1116       O  0.35007925  0.90926116  0.95923323    -0.55200
C1117       C  0.34306347  0.87654345  0.93996054     0.76200
O1118       O  0.20860567  0.64506452  0.01155504    -0.59800
O1119       O  0.12387713  0.61461036  0.00440131    -0.52900
C1120       C  0.16253646  0.60745273  0.00842843     0.72800
Zr1121     Zr  0.26448369  0.73691847  0.51088317     2.54700
O1122       O  0.29682305  0.69780183  0.97791040    -0.80400
O1123       O  0.28998443  0.70915836  0.55137416    -0.93800
Zr1124     Zr  0.22579929  0.78894713  0.94863313     2.64700
O1125       O  0.24049261  0.74917352  0.90757257    -0.98800
O1126       O  0.22621916  0.84926623  0.91548311    -0.80800
O1127       O  0.29022162  0.80448969  0.98012844    -0.84200
O1128       O  0.20122837  0.71716314  0.97770194    -2.18900
O1129       O  0.11444392  0.73449404  0.57342829    -0.67600
O1130       O  0.09745728  0.66271115  0.55093907    -0.52100
C1131       C  0.10029515  0.68736680  0.57357481     0.71200
O1132       O  0.22101745  0.94384670  0.00002541    -0.60500
O1133       O  0.30052646  0.95673576  0.50399570    -0.52500
C1134       C  0.26837838  0.97267417  0.50074754     0.73000
O1135       O  0.06335678  0.78462485  0.99577670    -0.71900
O1136       O  0.04794615  0.70319134  0.00336450    -0.50500
C1137       C  0.03237712  0.73484381  0.99860721     0.74400
O1138       O  0.26094616  0.88666680  0.56877810    -0.67200
O1139       O  0.33917881  0.91165696  0.55141981    -0.54400
C1140       C  0.30807493  0.90124982  0.57257548     0.72800
Zr1141     Zr  0.20195438  0.79689683  0.56084141     2.77500
O1142       O  0.17466839  0.82148021  0.60374558    -0.97900
O1143       O  0.23891191  0.76650589  0.59451648    -0.78800
Zr1144     Zr  0.16145543  0.84652599  0.99877984     2.70100
O1145       O  0.11930128  0.87676733  0.52941021    -0.80000
O1146       O  0.13973844  0.87501864  0.95713572    -0.99100
Zr1147     Zr  0.30612109  0.87938438  0.50518529     2.21500
Zr1148     Zr  0.12589442  0.70013247  0.00402713     2.11100
O1149       O  0.13675232  0.77502105  0.52769912    -2.47800
O1150       O  0.22684401  0.86462749  0.52873207    -0.79800
O1151       O  0.19057688  0.72286804  0.53658714    -0.72000
O1152       O  0.23944319  0.86240519  0.97408510    -2.33000
O1153       O  0.27830599  0.80914675  0.53711871    -2.29200
O1154       O  0.15044597  0.77252682  0.97416658    -0.73800
H1155       H  0.19520124  0.68782937  0.96661917     0.78200
H1156       H  0.25108883  0.89141672  0.96183851     0.79300
H1157       H  0.10460679  0.76955215  0.53602493     0.81500
H1158       H  0.30461291  0.81617159  0.55018368     0.79200
H1159       H  0.24464022  0.84700447  0.89858043     0.42200
H1160       H  0.11940609  0.89060725  0.96411087     0.41200
H1161       H  0.12264473  0.86473381  0.54776917     0.40800
H1162       H  0.14512916  0.82525193  0.59867743     0.38800
H1163       H  0.23702521  0.78209946  0.61240071     0.41900
H1164       H  0.31590211  0.74118713  0.56041619     0.36700
H1165       H  0.28578657  0.70258637  0.95966785     0.42800
H1166       H  0.27298486  0.74949933  0.91081296     0.39200
H1167       H  0.15936446  0.79091310  0.61597696     0.44100
H1168       H  0.31002143  0.69383728  0.54357909     0.42900
H1169       H  0.24917909  0.77358200  0.89209876     0.43000
H1170       H  0.17288171  0.90442816  0.95018576     0.43400
O1171       O  0.58105014  0.84864248  0.92639570    -0.75500
O1172       O  0.57533835  0.90535984  0.95590143    -0.54400
C1173       C  0.58015245  0.88979677  0.93131708     0.78200
O1174       O  0.43594150  0.64466600  0.01950865    -0.60100
O1175       O  0.49025927  0.61334494  0.01572700    -0.53100
C1176       C  0.44395916  0.60695974  0.01883360     0.70200
O1177       O  0.43718101  0.79229265  0.51146412    -0.74700
O1178       O  0.49173393  0.87727838  0.50456007    -0.55200
C1179       C  0.44552850  0.83797855  0.50818682     0.76200
O1180       O  0.61890120  0.73136001  0.94870082    -0.59800
O1181       O  0.57285474  0.65438526  0.96732050    -0.52900
C1182       C  0.59415309  0.68292810  0.94590147     0.72800
Zr1183     Zr  0.57103354  0.77567959  0.95064035     2.54700
O1184       O  0.49274052  0.71534061  0.92699494    -0.80400
O1185       O  0.59862180  0.78126147  0.90198352    -0.93800
Zr1186     Zr  0.47266248  0.73661540  0.51339578     2.64700
O1187       O  0.40505503  0.69359178  0.98107089    -0.98800
O1188       O  0.40761397  0.71053630  0.55092735    -0.80800
O1189       O  0.51836868  0.79708469  0.97901397    -0.84200
O1190       O  0.51901380  0.70983110  0.98313565    -2.18900
O1191       O  0.72645603  0.78395159  0.99654139    -0.67600
O1192       O  0.65861278  0.70269949  0.00587378    -0.52100
C1193       C  0.70680694  0.73436019  0.00002649     0.71200
O1194       O  0.63237862  0.89232373  0.56128198    -0.60500
O1195       O  0.57720477  0.91499843  0.54909180    -0.52500
C1196       C  0.60403859  0.91083270  0.56791438     0.73000
O1197       O  0.61994977  0.74664577  0.58121313    -0.71900
O1198       O  0.57435395  0.67115618  0.55942510    -0.50500
C1199       C  0.59354346  0.69781097  0.58153919     0.74400
O1200       O  0.72284636  0.94247840  0.99635622    -0.67200
O1201       O  0.65401958  0.95474474  0.49969966    -0.54400
C1202       C  0.70278861  0.97236150  0.49697283     0.72800
Zr1203     Zr  0.69014805  0.84504735  0.99913949     2.77500
O1204       O  0.75673524  0.88104994  0.53404975    -0.97900
O1205       O  0.74676403  0.87200870  0.95777901    -0.78800
Zr1206     Zr  0.59093823  0.80071347  0.56306847     2.70100
O1207       O  0.62640096  0.83255463  0.60856889    -0.80000
O1208       O  0.51859987  0.76542274  0.59665590    -0.99100
Zr1209     Zr  0.57467724  0.87557358  0.50326070     2.21500
Zr1210     Zr  0.57632150  0.69766180  0.01109656     2.11100
O1211       O  0.64005405  0.77811391  0.53261914    -2.47800
O1212       O  0.63686703  0.86543087  0.52896229    -0.79800
O1213       O  0.62843995  0.76644516  0.97849338    -0.72000
O1214       O  0.52892256  0.81075495  0.53834991    -2.33000
O1215       O  0.62846288  0.85360056  0.97320196    -2.29200
O1216       O  0.52839278  0.72446092  0.54161962    -0.73800
H1217       H  0.49573007  0.67845784  0.97372060     0.78200
H1218       H  0.50884437  0.81973244  0.55086247     0.79300
H1219       H  0.66583455  0.77371711  0.54141563     0.81500
H1220       H  0.64851326  0.88086669  0.96001621     0.79200
H1221       H  0.41474561  0.74281223  0.56023341     0.42200
H1222       H  0.48807766  0.74063276  0.58626593     0.41200
H1223       H  0.66295865  0.84148994  0.60663616     0.40800
H1224       H  0.78775077  0.90814319  0.52397064     0.38800
H1225       H  0.72303647  0.86214356  0.94216666     0.41900
H1226       H  0.57623245  0.74682103  0.89406953     0.36700
H1227       H  0.48339519  0.73732711  0.91667033     0.42800
H1228       H  0.37969565  0.70344285  0.98747516     0.39200
H1229       H  0.74616598  0.89993606  0.54710688     0.44100
H1230       H  0.63338477  0.78519027  0.90220149     0.42900
H1231       H  0.42013896  0.71292356  0.96356456     0.43000
H1232       H  0.52535504  0.74378744  0.60899616     0.43400
O1233       O  0.20642480  0.56438060  0.51746402    -0.75500
O1234       O  0.12203859  0.51087032  0.50863980    -0.54400
C1235       C  0.16144232  0.55669068  0.51217265     0.78200
O1236       O  0.27491777  0.38873442  0.95915378    -0.60100
O1237       O  0.34991628  0.43162660  0.97875618    -0.53100
C1238       C  0.32408877  0.41386565  0.95679628     0.70200
O1239       O  0.15478057  0.42595348  0.93254099    -0.74700
O1240       O  0.09440722  0.42912317  0.96137037    -0.55200
C1241       C  0.11315758  0.42725114  0.93705680     0.76200
O1242       O  0.35423588  0.56452534  0.02125814    -0.59800
O1243       O  0.38572408  0.51052161  0.02007483    -0.52900
C1244       C  0.39247228  0.55650971  0.02049405     0.72800
Zr1245     Zr  0.26091439  0.52841764  0.52407819     2.54700
O1246       O  0.30388015  0.60340731  0.99031100    -0.80400
O1247       O  0.27617821  0.57377484  0.56809362    -0.93800
Zr1248     Zr  0.22585426  0.43189205  0.95749452     2.64700
O1249       O  0.28965719  0.50738158  0.93139239    -0.98800
O1250       O  0.21587668  0.39661696  0.91086588    -0.80800
O1251       O  0.20193910  0.48297303  0.98482329    -0.84200
O1252       O  0.28894793  0.48315589  0.99015151    -2.18900
O1253       O  0.24470793  0.37943377  0.58850497    -0.67600
O1254       O  0.32284745  0.43546888  0.57095030    -0.52100
C1255       C  0.29155116  0.41266817  0.59187227     0.71200
O1256       O  0.05709176  0.27579467  0.00295843    -0.60500
O1257       O  0.04457276  0.34602864  0.50363978    -0.52500
C1258       C  0.02744182  0.29758975  0.50109769     0.73000
O1259       O  0.21898966  0.28025958  0.00651465    -0.71900
O1260       O  0.29836789  0.34675482  0.01892695    -0.50500
C1261       C  0.26813205  0.29969856  0.01170908     0.74400
O1262       O  0.09604286  0.36728982  0.56875663    -0.67200
O1263       O  0.07403008  0.42081405  0.55320720    -0.54400
C1264       C  0.07891761  0.39736442  0.57374346     0.72800
Zr1265     Zr  0.18756522  0.40501365  0.57143679     2.77500
O1266       O  0.15451731  0.35563874  0.61440677    -0.97900
O1267       O  0.20179119  0.46885138  0.60683200    -0.78800
Zr1268     Zr  0.15472595  0.31303605  0.00742913     2.70100
O1269       O  0.11550604  0.24715131  0.54219712    -0.80000
O1270       O  0.13722425  0.26035610  0.96595994    -0.99100
Zr1271     Zr  0.12214471  0.42723337  0.50965656     2.21500
Zr1272     Zr  0.29999580  0.42722708  0.02045538     2.11100
O1273       O  0.21692451  0.36117215  0.54107091    -2.47800
O1274       O  0.12820528  0.36255339  0.53572538    -0.79800
O1275       O  0.26860527  0.46950522  0.55199292    -0.72000
O1276       O  0.14606321  0.37395224  0.98011147    -2.33000
O1277       O  0.18187186  0.46935127  0.54629490    -2.29200
O1278       O  0.23485306  0.37599339  0.98711566    -0.73800
H1279       H  0.32094292  0.50627203  0.98024342     0.78200
H1280       H  0.12015040  0.35459350  0.96664360     0.79300
H1281       H  0.22021763  0.33452502  0.54978580     0.81500
H1282       H  0.17066239  0.48779010  0.55847320     0.79200
H1283       H  0.18894579  0.35997922  0.91304226     0.42200
H1284       H  0.10033794  0.24708978  0.96237994     0.41200
H1285       H  0.12177894  0.26593502  0.55998761     0.40800
H1286       H  0.15462578  0.32331544  0.61101551     0.38800
H1287       H  0.23287592  0.47462497  0.61635760     0.41900
H1288       H  0.24391033  0.57407550  0.57260686     0.36700
H1289       H  0.29008392  0.59054883  0.97170297     0.42800
H1290       H  0.29443737  0.49407136  0.91331282     0.39200
H1291       H  0.18124525  0.37442067  0.62829506     0.44100
H1292       H  0.30195351  0.60988252  0.56341193     0.42900
H1293       H  0.27123299  0.52566299  0.92701463     0.43000
H1294       H  0.15628097  0.28530358  0.95079151     0.43400
O1295       O  0.37137389  0.12753358  0.91921740    -0.75500
O1296       O  0.42640612  0.10556977  0.93569375    -0.54400
C1297       C  0.40184953  0.11048254  0.91554439     0.78200
O1298       O  0.56509290  0.35881323  0.98234428    -0.60100
O1299       O  0.51270830  0.39007870  0.99451145    -0.53100
C1300       C  0.55797617  0.39634753  0.98830724     0.70200
O1301       O  0.56211447  0.21046028  0.47606476    -0.74700
O1302       O  0.50698129  0.12553986  0.48369301    -0.55200
C1303       C  0.55560870  0.16619953  0.97713712     0.76200
O1304       O  0.36629691  0.26836731  0.94027399    -0.59800
O1305       O  0.42232362  0.34554999  0.95481147    -0.52900
C1306       C  0.39706737  0.31554721  0.93494292     0.72800
Zr1307     Zr  0.40108061  0.21230991  0.93622549     2.54700
O1308       O  0.46768759  0.25758127  0.90013962    -0.80400
O1309       O  0.34991927  0.19533332  0.89505989    -0.93800
Zr1310     Zr  0.52843210  0.26758588  0.97800241     2.64700
O1311       O  0.57404733  0.29618289  0.93312481    -0.98800
O1312       O  0.61111263  0.30547245  0.49926216    -0.80800
O1313       O  0.46596409  0.19731638  0.95287838    -0.84200
O1314       O  0.46762803  0.28477842  0.95928265    -2.18900
O1315       O  0.27804011  0.22177856  0.00794435    -0.67600
O1316       O  0.34713589  0.30376479  0.00477211    -0.52100
C1317       C  0.29823333  0.27170436  0.00777248     0.71200
O1318       O  0.40998860  0.13213712  0.56402154    -0.60500
O1319       O  0.41503457  0.08059772  0.53066930    -0.52500
C1320       C  0.40668122  0.09013944  0.55607875     0.73000
O1321       O  0.45172219  0.29050692  0.57214906    -0.71900
O1322       O  0.43716428  0.34279228  0.54519557    -0.50500
C1323       C  0.44717207  0.32968212  0.56854967     0.74400
O1324       O  0.28039846  0.06270308  0.00452957    -0.67200
O1325       O  0.34343949  0.04763315  0.48911967    -0.54400
C1326       C  0.29664247  0.03098956  0.49788085     0.72800
Zr1327     Zr  0.31419698  0.16097405  0.00432487     2.77500
O1328       O  0.26652145  0.13394441  0.55030592    -0.97900
O1329       O  0.23907384  0.12803268  0.97550761    -0.78800
Zr1330     Zr  0.44062869  0.21688744  0.54732732     2.70100
O1331       O  0.40748576  0.20397030  0.59519190    -0.80000
O1332       O  0.52271471  0.23706662  0.56658822    -0.99100
Zr1333     Zr  0.42568101  0.12866454  0.98555682     2.21500
Zr1334     Zr  0.42826728  0.30648933  0.99746836     2.11100
O1335       O  0.37777991  0.23288550  0.52925780    -2.47800
O1336       O  0.37759647  0.14627380  0.52272016    -0.79800
O1337       O  0.36123259  0.23236823  0.97377346    -0.72000
O1338       O  0.48593981  0.19892309  0.51229337    -2.33000
O1339       O  0.35845484  0.14223880  0.96820554    -2.29200
O1340       O  0.48755704  0.28717372  0.51706033    -0.73800
H1341       H  0.48606961  0.31327126  0.94663630     0.78200
H1342       H  0.51003387  0.19151564  0.52076823     0.79300
H1343       H  0.36140445  0.24176566  0.54417729     0.81500
H1344       H  0.33100423  0.11111919  0.96040829     0.79200
H1345       H  0.60360951  0.30046104  0.51950974     0.42200
H1346       H  0.52894599  0.26273521  0.58122985     0.41200
H1347       H  0.43575572  0.20656167  0.60632196     0.40800
H1348       H  0.23441934  0.13482341  0.54782282     0.38800
H1349       H  0.24994587  0.15385201  0.96051678     0.41900
H1350       H  0.31551596  0.16567540  0.90018108     0.36700
H1351       H  0.45454042  0.23697866  0.88307701     0.42800
H1352       H  0.58335018  0.33249133  0.93144091     0.39200
H1353       H  0.25475847  0.09700602  0.55205158     0.44100
H1354       H  0.36445540  0.18181120  0.88079655     0.42900
H1355       H  0.60736091  0.29765848  0.93548596     0.43000
H1356       H  0.51490671  0.20570055  0.57684292     0.43400
C1357       C  0.49469510  0.37179893  0.61071593    -0.09400
C1358       C  0.45162788  0.35804219  0.59445682     0.06800
C1359       C  0.40802093  0.35697863  0.60692088    -0.03100
C1360       C  0.40763971  0.36860481  0.63520113    -0.08500
C1361       C  0.44983152  0.38008824  0.65170097     0.05900
C1362       C  0.49424493  0.38312894  0.63895742    -0.02600
Br1363     Br  0.55619828  0.40513349  0.65887701    -0.02300
H1364       H  0.52825167  0.37189893  0.60155532     0.09800
H1365       H  0.37421970  0.36864260  0.64441226     0.07900
Br1366     Br  0.34661488  0.33529701  0.58667334    -0.02700
C1367       C  0.46677659  0.35728037  0.89892971    -0.09400
C1368       C  0.41368466  0.33083922  0.90564813     0.06800
C1369       C  0.37849966  0.31232576  0.88383673    -0.03100
C1370       C  0.39695896  0.32400824  0.85609309    -0.07600
C1371       C  0.45035560  0.35134317  0.84957150     0.05900
C1372       C  0.48487642  0.36484287  0.87135542    -0.02600
Br1373     Br  0.55785899  0.39550535  0.86410524    -0.02300
H1374       H  0.49467119  0.37071444  0.91511159     0.09800
H1375       H  0.36965053  0.31472131  0.83983118     0.07900
Br1376     Br  0.30506211  0.27403817  0.89101201    -0.02700
C1377       C  0.67709723  0.61347733  0.60937480    -0.09400
C1378       C  0.64726319  0.58042130  0.58803832     0.06800
C1379       C  0.59632796  0.54151449  0.59432484    -0.03100
C1380       C  0.57756606  0.53409853  0.62191655    -0.07600
C1381       C  0.60908343  0.56455102  0.64372529     0.05900
C1382       C  0.65881012  0.60560089  0.63697238    -0.02600
Br1383     Br  0.70379948  0.65201770  0.66426082    -0.02300
H1384       H  0.71652855  0.64365834  0.60477412     0.09800
H1385       H  0.53863798  0.50285218  0.62645113     0.07900
Br1386     Br  0.55319962  0.49412342  0.56665819    -0.02700
C1387       C  0.70778211  0.61883215  0.87471102    -0.09400
C1388       C  0.67408288  0.59036796  0.89718145     0.06800
C1389       C  0.62479909  0.54903827  0.89093712    -0.03100
C1390       C  0.61193102  0.53563939  0.86329341    -0.07600
C1391       C  0.64667853  0.56175422  0.84073881     0.05900
C1392       C  0.69485704  0.60494186  0.84687871    -0.02600
Br1393     Br  0.74574830  0.64531098  0.81875180    -0.02300
H1394       H  0.74535088  0.65167933  0.87873753     0.09800
H1395       H  0.57362225  0.50374148  0.85960762     0.07900
Br1396     Br  0.57282611  0.50714360  0.91849794    -0.02700
C1397       C  0.51742940  0.61274088  0.64234323    -0.09400
C1398       C  0.54303518  0.64492587  0.66504231     0.06800
C1399       C  0.58980312  0.69093806  0.65962410    -0.03100
C1400       C  0.60851454  0.70446602  0.63220170    -0.07600
C1401       C  0.58116594  0.67363609  0.60947615     0.05900
C1402       C  0.53600582  0.62616720  0.61503185    -0.02600
Br1403     Br  0.49537764  0.57843481  0.58678255    -0.02300
H1404       H  0.48216271  0.57620980  0.64563941     0.09800
H1405       H  0.64352993  0.74108684  0.62860822     0.07900
Br1406     Br  0.62854599  0.73882430  0.68812355    -0.02700
C1407       C  0.53176144  0.63846706  0.90952325    -0.09400
C1408       C  0.58323002  0.66309134  0.91755123     0.06800
C1409       C  0.62322775  0.67994859  0.89697796    -0.03100
C1410       C  0.61101400  0.66854969  0.86908892    -0.07600
C1411       C  0.55947674  0.64411038  0.86115474     0.05900
C1412       C  0.51992059  0.63053563  0.88149672    -0.02600
Br1413     Br  0.44928319  0.60184007  0.87155431    -0.02300
H1414       H  0.50090047  0.62818546  0.92496430     0.09800
H1415       H  0.64164369  0.67775128  0.85363603     0.07900
Br1416     Br  0.69488702  0.71950936  0.90589518    -0.02700
C1417       C  0.28594897  0.38797484  0.64129441    -0.09400
C1418       C  0.30569728  0.42707953  0.62102944     0.06800
C1419       C  0.32759111  0.47830605  0.62987602    -0.03100
C1420       C  0.33221838  0.48957261  0.65824766    -0.07600
C1421       C  0.31865533  0.45096762  0.67832435     0.05900
C1422       C  0.29300088  0.39956691  0.66963632    -0.02600
Br1423     Br  0.27363043  0.34459514  0.69536533    -0.02300
H1424       H  0.26631439  0.34811408  0.63496121     0.09800
H1425       H  0.35279075  0.52952460  0.66447622     0.07900
Br1426     Br  0.35183603  0.53455609  0.60433484    -0.02700
C1427       C  0.41367282  0.47960985  0.89459459    -0.09400
C1428       C  0.38084127  0.45286778  0.87253701     0.06800
C1429       C  0.33183857  0.41032480  0.87884636    -0.03100
C1430       C  0.31661373  0.39610885  0.90651773    -0.07600
C1431       C  0.34797444  0.42493384  0.92853501     0.05900
C1432       C  0.39760154  0.46682900  0.92229331    -0.02600
Br1433     Br  0.44493005  0.50974145  0.94997175    -0.02300
H1434       H  0.45244534  0.51127869  0.89032095     0.09800
H1435       H  0.27908266  0.36256793  0.91083297     0.07900
Br1436     Br  0.28449555  0.36879798  0.85099915    -0.02700
C1437       C  0.91982368  0.57980610  0.63476337    -0.09400
C1438       C  0.92721580  0.53763086  0.63604628     0.06800
C1439       C  0.93297293  0.51664554  0.61045711    -0.03100
C1440       C  0.92624021  0.53407503  0.58510810    -0.07600
C1441       C  0.91708419  0.57492378  0.58384439     0.05900
C1442       C  0.91680090  0.59970263  0.60913151    -0.02600
Br1443     Br  0.91717015  0.66345125  0.61029482    -0.02300
H1444       H  0.91869213  0.59890529  0.65374517     0.09800
H1445       H  0.92757804  0.51485261  0.56619836     0.07900
Br1446     Br  0.95067565  0.46427230  0.60765180    -0.02700
C1447       C  0.85408680  0.49676970  0.85620630    -0.09400
C1448       C  0.87841543  0.53058366  0.83362007     0.06800
C1449       C  0.90963779  0.58338405  0.83911566    -0.03100
C1450       C  0.91834653  0.60062346  0.86667787    -0.07600
C1451       C  0.89708283  0.56604800  0.88919000     0.05900
C1452       C  0.86347044  0.51377623  0.88357471    -0.02600
Br1453     Br  0.82658603  0.46376531  0.91215180    -0.02300
H1454       H  0.82969662  0.45596853  0.85253597     0.09800
H1455       H  0.94189904  0.64140467  0.87060107     0.07900
Br1456     Br  0.94392176  0.63325094  0.81012926    -0.02700
C1457       C  0.85676098  0.34066628  0.60489899    -0.09400
C1458       C  0.88785393  0.33129983  0.58602288     0.06800
C1459       C  0.92714114  0.32429724  0.59639460    -0.03100
C1460       C  0.93883499  0.33335518  0.62454363    -0.07600
C1461       C  0.91042304  0.34707380  0.64278048     0.05900
C1462       C  0.86754891  0.34826088  0.63304394    -0.02600
Br1463     Br  0.82692009  0.36715861  0.65657889    -0.02300
H1464       H  0.82496437  0.34407153  0.59759016     0.09800
H1465       H  0.97022566  0.32995846  0.63228729     0.07900
Br1466     Br  0.96173370  0.29714844  0.57397764    -0.02700
C1467       C  0.90517521  0.36760035  0.86194980    -0.09400
C1468       C  0.90877295  0.33765280  0.84010408     0.06800
C1469       C  0.91893828  0.29857633  0.84698233    -0.03100
C1470       C  0.92582093  0.29110475  0.87493483    -0.07600
C1471       C  0.92122696  0.32089882  0.89652773     0.05900
C1472       C  0.91074994  0.35948726  0.88952574    -0.02600
Br1473     Br  0.89657893  0.39859829  0.91644840    -0.02300
H1474       H  0.89699158  0.39782118  0.85788657     0.09800
H1475       H  0.93261545  0.26030294  0.87995318     0.07900
Br1476     Br  0.92004478  0.25202823  0.81985390    -0.02700
C1477       C  0.09856504  0.47843196  0.63811417    -0.09400
C1478       C  0.09545412  0.44572095  0.65964743     0.06800
C1479       C  0.08095240  0.39472467  0.65255484    -0.03100
C1480       C  0.07258438  0.37899258  0.62464145    -0.07600
C1481       C  0.07696620  0.41237749  0.60322938     0.05900
C1482       C  0.08814466  0.46204877  0.61061763    -0.02600
Br1483     Br  0.09012366  0.51009347  0.58448830    -0.02300
H1484       H  0.10808107  0.51737812  0.64267182     0.09800
H1485       H  0.06222774  0.33994787  0.61960835     0.07900
Br1486     Br  0.06963048  0.34389462  0.67958760    -0.02700
C1487       C  0.07287192  0.47695110  0.87748049    -0.09400
C1488       C  0.06364239  0.43997623  0.85691035     0.06800
C1489       C  0.06663096  0.39664175  0.86390191    -0.03100
C1490       C  0.07834779  0.39086695  0.89102398    -0.07600
C1491       C  0.08756641  0.42793396  0.91159802     0.05900
C1492       C  0.08434243  0.47113871  0.90462220    -0.02600
Br1493     Br  0.10009845  0.52545796  0.93066928    -0.02300
H1494       H  0.07266604  0.51142265  0.87212231     0.09800
H1495       H  0.08224453  0.35815283  0.89584259     0.07900
Br1496     Br  0.05624706  0.34506613  0.83710333    -0.02700
C1497       C  0.13027120  0.63809510  0.63733269    -0.09400
C1498       C  0.09950441  0.64443993  0.65781085     0.06800
C1499       C  0.06850510  0.66446121  0.65003279    -0.03100
C1500       C  0.06624735  0.67458039  0.62204421    -0.07600
C1501       C  0.09469487  0.66523023  0.60133679     0.05900
C1502       C  0.12842261  0.64860474  0.60943465    -0.02600
Br1503     Br  0.17523036  0.64238773  0.58379678    -0.02300
H1504       H  0.15352843  0.62173523  0.64290596     0.09800
H1505       H  0.04245521  0.69028491  0.61640028     0.07900
Br1506     Br  0.02570865  0.67499477  0.67664595    -0.02700
C1507       C  0.04300135  0.60847313  0.90616757    -0.09400
C1508       C  0.07647524  0.66131537  0.90706415     0.06800
C1509       C  0.08808302  0.68953051  0.88178964    -0.03100
C1510       C  0.07245702  0.66411282  0.85629601    -0.07600
C1511       C  0.04240097  0.61060099  0.85503689     0.05900
C1512       C  0.02533164  0.58318564  0.88080234    -0.02600
Br1513     Br  0.97920864  0.51084335  0.88417398    -0.02300
H1514       H  0.03242901  0.58624054  0.92516549     0.09800
H1515       H  0.08392430  0.68652364  0.83734357     0.07900
Br1516     Br  0.12423293  0.76329684  0.88024717    -0.02700
C1517       C  0.35434959  0.87190581  0.60174804    -0.09400
C1518       C  0.32317032  0.89384855  0.60045987     0.06800
C1519       C  0.30262998  0.90191084  0.62566695    -0.03100
C1520       C  0.31646498  0.89132562  0.65129694    -0.07600
C1521       C  0.35008584  0.87181646  0.65253964     0.05900
C1522       C  0.36697084  0.86016766  0.62712331    -0.02600
Br1523     Br  0.40773998  0.82818108  0.62515479    -0.02300
H1524       H  0.36898848  0.86335511  0.58279097     0.09800
H1525       H  0.30366088  0.90174575  0.67029092     0.07900
Br1526     Br  0.25930933  0.93152901  0.62656964    -0.02700
C1527       C  0.36390179  0.85595362  0.89281505    -0.09400
C1528       C  0.35609048  0.88981037  0.91003552     0.06800
C1529       C  0.35075803  0.92838861  0.89733910    -0.03100
C1530       C  0.35527103  0.93363617  0.86831560    -0.07600
C1531       C  0.36395689  0.90033329  0.85119188     0.05900
C1532       C  0.36744833  0.86068683  0.86381631    -0.02600
Br1533     Br  0.38133690  0.81470429  0.84242930    -0.02300
H1534       H  0.36710099  0.82527286  0.90199536     0.09800
H1535       H  0.35404082  0.96530172  0.85905281     0.07900
Br1536     Br  0.33415960  0.97279339  0.91836609    -0.02700
C1537       C  0.62942016  0.94333530  0.64414362    -0.09400
C1538       C  0.58378928  0.90352180  0.65667776     0.06800
C1539       C  0.54744578  0.86565634  0.63943298    -0.03100
C1540       C  0.55050497  0.87378088  0.61067791    -0.07600
C1541       C  0.59500325  0.91452126  0.59800772     0.05900
C1542       C  0.63631634  0.94702233  0.61505249    -0.02600
Br1543     Br  0.70274168  0.99586777  0.59925124    -0.02300
H1544       H  0.65850188  0.97295478  0.65691895     0.09800
H1545       H  0.51960793  0.84637236  0.59802710     0.07900
Br1546     Br  0.49296432  0.80331036  0.65579116    -0.02700
C1547       C  0.54820890  0.93619113  0.90403850    -0.09400
C1548       C  0.58216045  0.91789041  0.90595722     0.06800
C1549       C  0.60951964  0.91680558  0.88159236    -0.03100
C1550       C  0.59764035  0.92749863  0.85559559    -0.07600
C1551       C  0.56081678  0.94253525  0.85322216     0.05900
C1552       C  0.53802520  0.94940250  0.87832240    -0.02600
Br1553     Br  0.49091804  0.97472350  0.88041430    -0.02300
H1554       H  0.52732976  0.93774948  0.92250457     0.09800
H1555       H  0.61785473  0.92464137  0.83720397     0.07900
Br1556     Br  0.66497826  0.90267830  0.88274476    -0.02700
C1557       C  0.59109536  0.09172834  0.61374294    -0.09400
C1558       C  0.62119990  0.09052338  0.63510646     0.06800
C1559       C  0.66934888  0.09572107  0.62805956    -0.03100
C1560       C  0.68484282  0.09855818  0.60009725    -0.07600
C1561       C  0.65290477  0.09549635  0.57850445     0.05900
C1562       C  0.60621443  0.09388737  0.58569157    -0.02600
Br1563     Br  0.56237994  0.09642495  0.55856909    -0.02300
H1564       H  0.55439267  0.08899765  0.61896821     0.09800
H1565       H  0.72200663  0.10214163  0.59525088     0.07900
Br1566     Br  0.71375470  0.09545689  0.65552362    -0.02700
C1567       C  0.63017773  0.13225899  0.85383628    -0.09400
C1568       C  0.64046875  0.10675495  0.83213215     0.06800
C1569       C  0.66713175  0.08095418  0.83801447    -0.03100
C1570       C  0.68168935  0.08008883  0.86521433    -0.07600
C1571       C  0.66930595  0.10376074  0.88705276     0.05900
C1572       C  0.64453297  0.13123854  0.88092878    -0.02600
Br1573     Br  0.63237592  0.17115832  0.90813336    -0.02300
H1574       H  0.60938497  0.15198207  0.84980751     0.09800
H1575       H  0.70235638  0.06032967  0.86940897     0.07900
Br1576     Br  0.68086835  0.04262989  0.81041977    -0.02700
C1577       C  0.42556708  0.03073211  0.58112969    -0.09400
C1578       C  0.39631871  0.05440613  0.57941242     0.06800
C1579       C  0.36947215  0.05662946  0.60371270    -0.03100
C1580       C  0.38130528  0.04626409  0.62978334    -0.07600
C1581       C  0.41641205  0.02909727  0.63209225     0.05900
C1582       C  0.43469746  0.01666859  0.60693546    -0.02600
Br1583     Br  0.47423168  0.98258060  0.60489791    -0.02300
H1584       H  0.44440751  0.02637536  0.56256246     0.09800
H1585       H  0.36304310  0.05178196  0.64825097     0.07900
Br1586     Br  0.31687876  0.07477401  0.60220169    -0.02700
C1587       C  0.36880988  0.07164576  0.86966256    -0.09400
C1588       C  0.41138259  0.10239583  0.88620721     0.06800
C1589       C  0.45940864  0.13561212  0.87294587    -0.03100
C1590       C  0.46494199  0.13492879  0.84402164    -0.07600
C1591       C  0.42374374  0.09995893  0.82774637     0.05900
C1592       C  0.37493626  0.06938181  0.84080156    -0.02600
Br1593     Br  0.31730128  0.01954730  0.82029579    -0.02300
H1594       H  0.33073292  0.04849682  0.87930579     0.09800
H1595       H  0.50316773  0.15791118  0.83444690     0.07900
Br1596     Br  0.51868537  0.18296104  0.89326702    -0.02700
loop_ 
_geom_bond_atom_site_label_1 
_geom_bond_atom_site_label_2 
_geom_bond_distance 
_geom_bond_site_symmetry_2 
_ccdc_geom_bond_type 
O1          Zr13   2.512       .  S
O1            C3   1.299       .  A
O2          Zr39   2.318       .  S
O2            C3   1.266       .  A
C3          C793   1.468       .  S
O4          Zr16   2.499       .  S
O4            C6   1.294       .  A
O5          Zr40   2.401       .  S
O5            C6   1.274       .  A
C6          C723   1.490       .  S
O7          Zr16   2.500       .  S
O7            C9   1.297       .  A
O8          Zr39   2.364   1_565  S
O8            C9   1.273       .  A
C9          C733   1.480       .  S
O10         Zr13   2.523       .  S
O10          C12   1.304       .  A
O11         Zr40   2.355       .  S
O11          C12   1.268   1_565  A
C12         C783   1.498       .  S
Zr13         O14   2.437       .  S
Zr13         O15   2.435       .  S
Zr13         O19   2.294   1_545  S
Zr13         O43   2.289       .  S
Zr13         O20   2.358   1_545  S
Zr13         O45   2.379       .  S
O14          H57   0.990       .  S
O15          H56   0.990       .  S
O15          H60   0.990       .  S
Zr16         O17   2.437       .  S
Zr16         O18   2.435       .  S
Zr16         O19   2.295       .  S
Zr16         O46   2.301       .  S
Zr16         O20   2.391       .  S
Zr16         O44   2.386       .  S
O17          H58   0.990       .  S
O17          H61   0.990       .  S
O18          H51   0.991       .  S
O19         Zr39   2.263   1_565  S
O20         Zr40   2.380       .  S
O20          H47   0.963       .  S
O21         Zr33   2.482       .  S
O21          C23   1.293       .  A
O22         Zr40   2.375   1_545  S
O22          C23   1.275       .  A
C23         C760   1.475       .  S
O24         Zr36   2.524       .  S
O24          C26   1.304       .  A
O25         Zr39   2.371   1_565  S
O25          C26   1.271       .  A
C26         C753   1.507       .  S
O27         Zr36   2.510       .  S
O27          C29   1.298       .  A
O28         Zr40   2.351       .  S
O28          C29   1.272       .  A
C29         C740   1.470       .  S
O30         Zr33   2.490       .  S
O30          C32   1.289       .  A
O31         Zr39   2.371       .  S
O31          C32   1.264       .  A
C32         C770   1.496       .  S
Zr33         O34   2.439       .  S
Zr33         O35   2.438       .  S
Zr33         O42   2.284       .  S
Zr33         O43   2.294       .  S
Zr33         O41   2.372       .  S
Zr33         O45   2.380       .  S
O34          H54   0.990       .  S
O34          H59   0.991       .  S
O35          H55   0.990       .  S
Zr36         O37   2.434       .  S
Zr36         O38   2.436       .  S
Zr36         O42   2.278   1_565  S
Zr36         O46   2.302       .  S
Zr36         O41   2.396   1_565  S
Zr36         O44   2.387       .  S
O37          H53   0.990       .  S
O38          H52   0.990       .  S
O38          H62   0.990       .  S
Zr39         O42   2.258       .  S
Zr39         O44   2.373   1_545  S
Zr39         O45   2.377       .  S
Zr40         O43   2.267   1_565  S
Zr40         O46   2.268       .  S
Zr40         O41   2.386   1_565  S
O41          H49   0.966       .  S
O44          H48   0.964       .  S
O45          H50   0.967       .  S
O63         Zr75   2.522       .  S
O63          C65   1.303       .  A
O64        Zr101   2.362       .  S
O64          C65   1.270   1_655  A
C65         C713   1.504       .  S
O66         Zr78   2.546       .  S
O66          C68   1.307       .  A
O67        Zr102   2.348   1_655  S
O67          C68   1.269       .  A
C68         C640   1.499       .  S
O69         Zr78   2.504       .  S
O69          C71   1.295       .  A
O70        Zr101   2.351       .  S
O70          C71   1.266       .  A
C71         C650   1.479       .  S
O72         Zr75   2.508       .  S
O72          C74   1.299       .  A
O73        Zr102   2.355       .  S
O73          C74   1.274       .  A
C74         C700   1.468       .  S
Zr75         O76   2.433       .  S
Zr75         O77   2.436       .  S
Zr75         O81   2.279   1_455  S
Zr75        O105   2.298       .  S
Zr75         O82   2.384   1_455  S
Zr75        O107   2.378       .  S
O76         H119   0.990       .  S
O77         H118   0.990       .  S
O77         H122   0.990       .  S
Zr78         O79   2.438       .  S
Zr78         O80   2.436       .  S
Zr78         O81   2.293       .  S
Zr78        O108   2.282       .  S
Zr78         O82   2.342       .  S
Zr78        O106   2.380       .  S
O79         H120   0.990       .  S
O79         H123   0.991       .  S
O80         H113   0.991       .  S
O81        Zr101   2.266       .  S
O82        Zr102   2.381   1_655  S
O82         H109   0.964       .  S
O83         Zr95   2.500       .  S
O83          C85   1.283       .  A
O84        Zr102   2.366       .  S
O84          C85   1.256       .  A
C85         C680   1.502       .  S
O86         Zr98   2.505       .  S
O86          C88   1.288       .  A
O87        Zr101   2.363       .  S
O87          C88   1.256       .  A
C88         C670   1.496       .  S
O89         Zr98   2.466       .  S
O89          C91   1.291       .  A
O90        Zr102   2.394   1_655  S
O90          C91   1.279       .  A
C91         C663   1.466       .  S
O92         Zr95   2.487       .  S
O92          C94   1.296       .  A
O93        Zr101   2.398   1_455  S
O93          C94   1.281       .  A
C94         C690   1.481       .  S
Zr95         O96   2.436       .  S
Zr95         O97   2.436       .  S
Zr95        O104   2.285   1_455  S
Zr95        O105   2.302       .  S
Zr95        O103   2.403       .  S
Zr95        O107   2.398       .  S
O96         H116   0.990       .  S
O96         H121   0.991       .  S
O97         H117   0.990       .  S
Zr98         O99   2.437       .  S
Zr98        O100   2.437       .  S
Zr98        O104   2.282       .  S
Zr98        O108   2.304       .  S
Zr98        O103   2.375   1_655  S
Zr98        O106   2.380       .  S
O99         H115   0.990       .  S
O100        H114   0.990       .  S
O100        H124   0.990       .  S
Zr101       O104   2.267       .  S
Zr101       O106   2.389       .  S
Zr101       O107   2.382   1_655  S
Zr102       O105   2.265       .  S
Zr102       O108   2.262   1_455  S
Zr102       O103   2.390       .  S
O103        H111   0.965       .  S
O106        H110   0.968       .  S
O107        H112   0.965       .  S
O125       Zr137   2.480       .  S
O125        C127   1.293       .  A
O126       Zr163   2.365       .  S
O126        C127   1.273       .  A
C127        C613   1.457       .  S
O128       Zr140   2.510       .  S
O128        C130   1.298       .  A
O129       Zr164   2.322       .  S
O129        C130   1.265       .  A
C130        C623   1.473       .  S
O131       Zr140   2.512       .  S
O131        C133   1.300       .  A
O132       Zr163   2.349       .  S
O132        C133   1.273       .  A
C133        C630   1.485       .  S
O134       Zr137   2.490       .  S
O134        C136   1.288       .  A
O135       Zr164   2.365       .  S
O135        C136   1.259       .  A
C136        C600   1.492       .  S
Zr137       O138   2.436       .  S
Zr137       O139   2.441       .  S
Zr137       O143   2.299       .  S
Zr137       O167   2.284       .  S
Zr137       O144   2.386       .  S
Zr137       O169   2.365       .  S
O138        H181   0.990       .  S
O139        H180   0.989       .  S
O139        H184   0.990       .  S
Zr140       O141   2.437       .  S
Zr140       O142   2.434       .  S
Zr140       O143   2.293       .  S
Zr140       O170   2.288       .  S
Zr140       O144   2.367       .  S
Zr140       O168   2.355       .  S
O141        H182   0.990       .  S
O141        H185   0.990       .  S
O142        H175   0.990       .  S
O143       Zr163   2.268       .  S
O144       Zr164   2.384       .  S
O144        H171   0.968       .  S
O145       Zr157   2.491       .  S
O145        C147   1.297       .  A
O146       Zr164   2.355       .  S
O146        C147   1.272       .  A
C147        C583   1.476       .  S
O148       Zr160   2.522       .  S
O148        C150   1.301       .  A
O149       Zr163   2.355       .  S
O149        C150   1.274       .  A
C150        C573   1.480       .  S
O151       Zr160   2.504       .  S
O151        C153   1.299       .  A
O152       Zr164   2.385       .  S
O152        C153   1.276       .  A
C153        C563   1.481       .  S
O154       Zr157   2.501       .  S
O154        C156   1.286       .  A
O155       Zr163   2.377       .  S
O155        C156   1.261       .  A
C156        C593   1.505       .  S
Zr157       O158   2.434       .  S
Zr157       O159   2.435       .  S
Zr157       O166   2.303       .  S
Zr157       O167   2.284       .  S
Zr157       O165   2.384       .  S
Zr157       O169   2.392       .  S
O158        H178   0.990       .  S
O158        H183   0.991       .  S
O159        H179   0.990       .  S
Zr160       O161   2.434       .  S
Zr160       O162   2.434       .  S
Zr160       O166   2.295       .  S
Zr160       O170   2.290       .  S
Zr160       O165   2.389       .  S
Zr160       O168   2.376       .  S
O161        H177   0.990       .  S
O162        H176   0.990       .  S
O162        H186   0.990       .  S
Zr163       O166   2.258       .  S
Zr163       O168   2.377       .  S
Zr163       O169   2.385       .  S
Zr164       O167   2.269       .  S
Zr164       O170   2.260       .  S
Zr164       O165   2.378       .  S
O165        H173   0.966       .  S
O168        H172   0.962       .  S
O169        H174   0.966       .  S
O187       Zr199   2.416       .  S
O187        C189   1.285       .  A
O188       Zr225   2.551       .  S
O188        C189   1.305       .  A
C189       C1058   1.534       .  S
O190       Zr202   2.402       .  S
O190        C192   1.272       .  A
O191       Zr226   2.467       .  S
O191        C192   1.287       .  A
C192        C590   1.501       .  S
O193       Zr202   2.386       .  S
O193        C195   1.262       .  A
O194      Zr1023   2.498       .  S
O194        C195   1.296       .  A
C195        C653   1.476       .  S
O196       Zr997   2.390       .  S
O196        C198   1.280       .  A
O197       Zr226   2.528       .  S
O197        C198   1.301       .  A
C198        C502   1.514       .  S
Zr199       O994   2.395       .  S
Zr199       O201   2.437   1_556  S
Zr199       O998   2.433       .  S
Zr199       O229   2.362   1_556  S
Zr199       O231   2.352   1_556  S
Zr199      O1003   2.354       .  S
Zr199      O1004   2.368       .  S
O200       Zr997   2.434       .  S
O200        H243   0.990       .  S
O201        H242   0.990       .  S
O201        H246   0.990       .  S
Zr202       O203   2.438       .  S
Zr202       O204   2.435       .  S
Zr202       O206   2.381       .  S
Zr202       O205   2.381       .  S
Zr202       O230   2.391       .  S
Zr202       O232   2.366       .  S
O203        H244   0.990       .  S
O203        H247   0.990       .  S
O204        H237   0.990       .  S
O205       Zr997   2.357       .  S
O205      Zr1023   2.381       .  S
O206       Zr226   2.396       .  S
O206       Zr997   2.366       .  S
O206        H233   0.965       .  S
O207       Zr219   2.373       .  S
O207        C209   1.274       .  A
O208      Zr1024   2.471   1_554  S
O208        C209   1.295       .  A
C209        C580   1.468       .  S
O210       Zr222   2.569       .  S
O210       C1010   1.313       .  A
O211       Zr225   2.410       .  S
O211        C212   1.292       .  A
C212       O1008   1.310       .  A
C212       C1137   1.519   1_655  S
O213       Zr222   2.570       .  S
O213        C215   1.311       .  A
O214       Zr226   2.406       .  S
O214        C215   1.289       .  A
C215        C395   1.529       .  S
O216       Zr219   2.366       .  S
O216        C218   1.274       .  A
O217       Zr225   2.493   1_554  S
O217        C218   1.300       .  A
C218        C643   1.482       .  S
Zr219       O220   2.435       .  S
Zr219       O221   2.433       .  S
Zr219       O227   2.354       .  S
Zr219       O228   2.355       .  S
Zr219       O231   2.355       .  S
Zr219       O229   2.353       .  S
O220        H240   0.990       .  S
O220        H245   0.990       .  S
O221        H241   0.990       .  S
Zr222       O224   2.437       .  S
Zr222      O1021   2.433       .  S
Zr222       O232   2.390       .  S
Zr222       O230   2.381       .  S
Zr222      O1026   2.392       .  S
Zr222      O1025   2.394       .  S
O223      Zr1020   2.435   1_554  S
O223        H239   0.990       .  S
O224        H238   0.990       .  S
O224        H248   0.990       .  S
Zr225       O992   2.492       .  S
Zr225       O228   2.414   1_556  S
Zr225       O231   2.375   1_556  S
Zr225      O1003   2.387       .  S
Zr225      O1028   2.440       .  S
Zr226      O1006   2.453       .  S
Zr226       O232   2.418       .  S
Zr226      O1025   2.425       .  S
Zr226      O1027   2.385       .  S
O227      Zr1020   2.385   1_554  S
O227      Zr1024   2.408   1_554  S
O227        H235   0.965       .  S
O228      Zr1020   2.396   1_554  S
O229      Zr1024   2.377   1_554  S
O230      Zr1023   2.428       .  S
O230        H234   0.964       .  S
O231        H236   0.966       .  S
O249       Zr261   2.399       .  S
O249        C251   1.283       .  A
O250       Zr287   2.541       .  S
O250        C251   1.304       .  A
C251       C1303   1.523       .  S
O252       Zr264   2.409       .  S
O252        C254   1.270       .  A
O253       Zr288   2.436       .  S
O253        C254   1.280       .  A
C254        C673   1.479       .  S
O255       Zr264   2.404       .  S
O255        C257   1.274       .  A
O256      Zr1085   2.466       .  S
O256        C257   1.292       .  A
C257        C773   1.488       .  S
O258      Zr1059   2.406       .  S
O258        C260   1.284       .  A
O259       Zr288   2.539       .  S
O259        C260   1.303       .  A
C260        C987   1.525       .  S
Zr261      O1056   2.410       .  S
Zr261       O263   2.439   1_556  S
Zr261      O1060   2.433       .  S
Zr261       O291   2.341   1_556  S
Zr261       O293   2.366   1_556  S
Zr261      O1065   2.366       .  S
Zr261      O1066   2.364       .  S
O262      Zr1059   2.434       .  S
O262        H305   0.990       .  S
O263        H304   0.990       .  S
O263        H308   0.990       .  S
Zr264       O265   2.440       .  S
Zr264       O266   2.435       .  S
Zr264       O268   2.382       .  S
Zr264       O267   2.382       .  S
Zr264       O292   2.378       .  S
Zr264       O294   2.369       .  S
O265        H306   0.990       .  S
O265        H309   0.990       .  S
O266        H299   0.990       .  S
O267      Zr1059   2.364       .  S
O267      Zr1085   2.382       .  S
O268       Zr288   2.410       .  S
O268      Zr1059   2.356       .  S
O268        H295   0.977       .  S
O269       Zr281   2.405       .  S
O269        C271   1.269       .  A
O270      Zr1086   2.438   1_554  S
O270        C271   1.280       .  A
C271        C660   1.474       .  S
O272       Zr284   2.547       .  S
O272       C1072   1.306       .  A
O273       Zr287   2.441       .  S
O273        C274   1.299       .  A
C274       O1070   1.308       .  A
C274        C404   1.525   1_545  S
O275       Zr284   2.566       .  S
O275        C277   1.310       .  A
O276       Zr288   2.396       .  S
O276        C277   1.287       .  A
C277       C1258   1.525   1_655  S
O278       Zr281   2.397       .  S
O278        C280   1.267       .  A
O279       Zr287   2.446   1_554  S
O279        C280   1.277       .  A
C280        C763   1.486       .  S
Zr281       O282   2.436       .  S
Zr281       O283   2.435       .  S
Zr281       O289   2.382       .  S
Zr281       O290   2.366       .  S
Zr281       O293   2.381       .  S
Zr281       O291   2.374       .  S
O282        H302   0.989       .  S
O282        H307   0.990       .  S
O283        H303   0.990       .  S
Zr284       O286   2.436       .  S
Zr284      O1083   2.432       .  S
Zr284       O294   2.373       .  S
Zr284       O292   2.408       .  S
Zr284      O1088   2.381       .  S
Zr284      O1087   2.410       .  S
O285      Zr1082   2.435   1_554  S
O285        H301   0.990       .  S
O286        H300   0.990       .  S
O286        H310   0.990       .  S
Zr287      O1054   2.461       .  S
Zr287       O290   2.425   1_556  S
Zr287       O293   2.408   1_556  S
Zr287      O1065   2.382       .  S
Zr287      O1090   2.435       .  S
Zr288      O1068   2.438       .  S
Zr288       O294   2.424       .  S
Zr288      O1087   2.441       .  S
Zr288      O1089   2.382       .  S
O289      Zr1082   2.403   1_554  S
O289      Zr1086   2.439   1_554  S
O289        H297   0.962       .  S
O290      Zr1082   2.382   1_554  S
O291      Zr1086   2.382   1_554  S
O292      Zr1085   2.431       .  S
O292        H296   0.965       .  S
O293        H298   0.968       .  S
O311       Zr323   2.401       .  S
O311        C313   1.282       .  A
O312       Zr349   2.532       .  S
O312        C313   1.303       .  A
C313        C381   1.517       .  S
O314       Zr326   2.378       .  S
O314        C316   1.273       .  A
O315       Zr350   2.498       .  S
O315        C316   1.302       .  A
C316        C710   1.493       .  S
O317       Zr326   2.392       .  S
O317        C319   1.267       .  A
O318      Zr1147   2.466       .  S
O318        C319   1.285       .  A
C319        C730   1.489       .  S
O320      Zr1121   2.402       .  S
O320        C322   1.283       .  A
O321       Zr350   2.542       .  S
O321        C322   1.304       .  A
C322       C1235   1.526       .  S
Zr323      O1118   2.399       .  S
Zr323       O325   2.433       .  S
Zr323      O1122   2.429   1_554  S
Zr323       O353   2.346       .  S
Zr323       O355   2.357       .  S
Zr323      O1127   2.337   1_554  S
Zr323      O1128   2.366   1_554  S
O324      Zr1121   2.433       .  S
O324        H367   0.990       .  S
O325        H366   0.990       .  S
O325        H370   0.989       .  S
Zr326       O327   2.439       .  S
Zr326       O328   2.438       .  S
Zr326       O330   2.376       .  S
Zr326       O329   2.353       .  S
Zr326       O354   2.376       .  S
Zr326       O356   2.358       .  S
O327        H368   0.990       .  S
O327        H371   0.990       .  S
O328        H361   0.990       .  S
O329      Zr1121   2.335       .  S
O329      Zr1147   2.380       .  S
O330       Zr350   2.379       .  S
O330      Zr1121   2.370       .  S
O330        H357   0.967       .  S
O331       Zr343   2.400       .  S
O331        C333   1.268       .  A
O332      Zr1148   2.481       .  S
O332        C333   1.293       .  A
C333        C703   1.471       .  S
O334       Zr346   2.556       .  S
O334       C1134   1.309       .  A
O335       Zr349   2.443       .  S
O335        C336   1.298       .  A
C336       O1132   1.308       .  A
C336        C528   1.529   1_564  S
O337       Zr346   2.576       .  S
O337        C339   1.314       .  A
O338       Zr350   2.397       .  S
O338        C339   1.289       .  A
C339       C1010   1.520   1_455  S
O340       Zr343   2.410       .  S
O340        C342   1.271       .  A
O341       Zr349   2.456       .  S
O341        C342   1.286       .  A
C342        C720   1.488       .  S
Zr343       O344   2.440       .  S
Zr343       O345   2.436       .  S
Zr343       O351   2.387       .  S
Zr343       O352   2.369       .  S
Zr343       O355   2.380       .  S
Zr343       O353   2.384       .  S
O344        H364   0.990       .  S
O344        H369   0.990       .  S
O345        H365   0.990       .  S
Zr346       O348   2.435       .  S
Zr346      O1145   2.433       .  S
Zr346       O356   2.388       .  S
Zr346       O354   2.406       .  S
Zr346      O1150   2.397       .  S
Zr346      O1149   2.378       .  S
O347      Zr1144   2.435   1_554  S
O347        H363   0.990       .  S
O348        H362   0.991       .  S
O348        H372   0.990       .  S
Zr349      O1116   2.477   1_554  S
Zr349       O352   2.429       .  S
Zr349       O355   2.408       .  S
Zr349      O1127   2.382   1_554  S
Zr349      O1152   2.433   1_554  S
Zr350      O1130   2.485       .  S
Zr350       O356   2.405       .  S
Zr350      O1149   2.439       .  S
Zr350      O1151   2.381       .  S
O351      Zr1144   2.382   1_554  S
O351      Zr1148   2.442       .  S
O351        H359   0.966       .  S
O352      Zr1144   2.392   1_554  S
O353      Zr1148   2.383       .  S
O354      Zr1147   2.437       .  S
O354        H358   0.965       .  S
O355        H360   0.963       .  S
O373       Zr385   2.409       .  S
O373        C375   1.280       .  A
O374      Zr1209   2.493       .  S
O374        C375   1.300       .  A
C375        C750   1.493       .  S
O376      Zr1186   2.398       .  S
O376        C378   1.282       .  A
O377       Zr412   2.551       .  S
O377        C378   1.306       .  A
C378        C446   1.529       .  S
O379       Zr388   2.417       .  S
O379        C381   1.285       .  A
O380       Zr411   2.514       .  S
O380        C381   1.297       .  A
O382       Zr385   2.416       .  S
O382        C384   1.271       .  A
O383       Zr412   2.433       .  S
O383        C384   1.279       .  A
C384        C610   1.460       .  S
Zr385       O386   2.436       .  S
Zr385       O387   2.437       .  S
Zr385       O391   2.376       .  S
Zr385       O392   2.380       .  S
Zr385       O415   2.354       .  S
Zr385       O417   2.372       .  S
O386        H429   0.990       .  S
O387        H428   0.989       .  S
O387        H432   0.990       .  S
Zr388      O1174   2.386       .  S
Zr388       O390   2.437       .  S
Zr388      O1187   2.426   1_554  S
Zr388       O416   2.350       .  S
Zr388       O418   2.368       .  S
Zr388      O1190   2.363   1_554  S
Zr388      O1189   2.361   1_554  S
O389      Zr1186   2.435       .  S
O389        H430   0.990       .  S
O389        H433   0.990       .  S
O390        H423   0.990       .  S
O391      Zr1186   2.363       .  S
O391      Zr1209   2.378       .  S
O392       Zr412   2.404       .  S
O392      Zr1186   2.362       .  S
O392        H419   0.965       .  S
O393       Zr405   2.583       .  S
O393        C395   1.316       .  A
O394       Zr412   2.408       .  S
O394        C395   1.291       .  A
O396       Zr408   2.400       .  S
O396        C398   1.266       .  A
O397       Zr411   2.469       .  S
O397        C398   1.285       .  A
C398        C743   1.474       .  S
O399       Zr408   2.400       .  S
O399        C401   1.274       .  A
O400      Zr1210   2.466       .  S
O400        C401   1.293       .  A
C401        C603   1.482       .  S
O402       Zr405   2.591       .  S
O402       C1202   1.317       .  A
O403       Zr411   2.370   1_556  S
O403        C404   1.281       .  A
C404       O1200   1.318       .  A
Zr405       O407   2.434       .  S
Zr405      O1204   2.434       .  S
Zr405       O417   2.399       .  S
Zr405       O415   2.374       .  S
Zr405      O1211   2.401       .  S
Zr405      O1212   2.376       .  S
O406      Zr1203   2.434   1_554  S
O406        H426   0.990       .  S
O406        H431   0.990       .  S
O407        H427   0.990       .  S
Zr408       O409   2.436       .  S
Zr408       O410   2.435       .  S
Zr408       O414   2.373       .  S
Zr408       O413   2.374       .  S
Zr408       O418   2.365       .  S
Zr408       O416   2.396       .  S
O409        H425   0.990       .  S
O410        H424   0.988       .  S
O410        H434   0.990       .  S
Zr411      O1172   2.482   1_554  S
Zr411       O414   2.422       .  S
Zr411       O416   2.406       .  S
Zr411      O1189   2.376   1_554  S
Zr411      O1215   2.418   1_554  S
Zr412      O1198   2.460       .  S
Zr412       O415   2.424       .  S
Zr412      O1211   2.424       .  S
Zr412      O1216   2.365       .  S
O413      Zr1203   2.401   1_554  S
O413      Zr1210   2.424       .  S
O413        H421   0.964       .  S
O414      Zr1203   2.369   1_554  S
O416        H420   0.958       .  S
O417      Zr1209   2.421       .  S
O417        H422   0.965       .  S
O418      Zr1210   2.371       .  S
O435       Zr447   2.414       .  S
O435        C437   1.285       .  A
O436       Zr473   2.546       .  S
O436        C437   1.303       .  A
C437       C1120   1.534       .  S
O438       Zr450   2.407       .  S
O438        C440   1.271       .  A
O439       Zr474   2.453       .  S
O439        C440   1.283       .  A
C440        C633   1.486       .  S
O441       Zr450   2.401       .  S
O441        C443   1.278       .  A
O442      Zr1271   2.463       .  S
O442        C443   1.294       .  A
C443        C693   1.471       .  S
O444      Zr1245   2.421       .  S
O444        C446   1.287       .  A
O445       Zr474   2.541       .  S
O445        C446   1.303       .  A
Zr447      O1242   2.422       .  S
Zr447       O449   2.433       .  S
Zr447      O1246   2.428   1_554  S
Zr447       O477   2.364       .  S
Zr447       O479   2.358       .  S
Zr447      O1251   2.368   1_554  S
Zr447      O1252   2.359   1_554  S
O448      Zr1245   2.431       .  S
O448        H491   0.990       .  S
O449        H490   0.990       .  S
O449        H494   0.989       .  S
Zr450       O451   2.439       .  S
Zr450       O452   2.433       .  S
Zr450       O454   2.371       .  S
Zr450       O453   2.370       .  S
Zr450       O478   2.365       .  S
Zr450       O480   2.354       .  S
O451        H492   0.990       .  S
O451        H495   0.990       .  S
O452        H485   0.991       .  S
O453      Zr1245   2.374       .  S
O453      Zr1271   2.381       .  S
O454       Zr474   2.404       .  S
O454      Zr1245   2.366       .  S
O454        H481   0.966       .  S
O455       Zr467   2.391       .  S
O455        C457   1.263       .  A
O456      Zr1272   2.479       .  S
O456        C457   1.291       .  A
C457        C620   1.474       .  S
O458       Zr470   2.567       .  S
O458       C1258   1.311       .  A
O459       Zr473   2.399       .  S
O459        C460   1.288       .  A
C460       O1256   1.311       .  A
C460       C1075   1.526   1_454  S
O461       Zr470   2.580       .  S
O461        C463   1.316       .  A
O462       Zr474   2.418       .  S
O462        C463   1.293       .  A
C463        C519   1.530       .  S
O464       Zr467   2.390       .  S
O464        C466   1.267       .  A
O465       Zr473   2.468       .  S
O465        C466   1.285       .  A
C466        C683   1.495       .  S
Zr467       O468   2.441       .  S
Zr467       O469   2.438       .  S
Zr467       O475   2.384       .  S
Zr467       O476   2.370       .  S
Zr467       O479   2.395       .  S
Zr467       O477   2.381       .  S
O468        H488   0.990       .  S
O468        H493   0.990       .  S
O469        H489   0.990       .  S
Zr470       O472   2.435       .  S
Zr470      O1269   2.434       .  S
Zr470       O480   2.373       .  S
Zr470       O478   2.403       .  S
Zr470      O1274   2.384       .  S
Zr470      O1273   2.387       .  S
O471      Zr1268   2.433       .  S
O471        H487   0.990       .  S
O472        H486   0.990       .  S
O472        H496   0.990       .  S
Zr473      O1240   2.465   1_554  S
Zr473       O476   2.428       .  S
Zr473       O479   2.403       .  S
Zr473      O1251   2.379   1_554  S
Zr473      O1276   2.425   1_554  S
Zr474      O1254   2.487       .  S
Zr474       O480   2.420       .  S
Zr474      O1273   2.432       .  S
Zr474      O1275   2.386       .  S
O475      Zr1268   2.395       .  S
O475      Zr1272   2.429       .  S
O475        H483   0.965       .  S
O476      Zr1268   2.383       .  S
O477      Zr1272   2.378       .  S
O478      Zr1271   2.414       .  S
O478        H482   0.966       .  S
O479        H484   0.963       .  S
O497       Zr509   2.383       .  S
O497        C499   1.264       .  A
O498       Zr535   2.491       .  S
O498        C499   1.296       .  A
C499        C790   1.472       .  S
O500       Zr512   2.414       .  S
O500        C502   1.285       .  A
O501       Zr536   2.511       .  S
O501        C502   1.297       .  A
O503      Zr1310   2.422       .  S
O503       C1303   1.288       .  A
O504      Zr1333   2.530       .  S
O504       C1303   1.302       .  A
C505       O1301   1.287       .  A
C505       O1302   1.303       .  A
C505       C1049   1.528       .  S
O506       Zr509   2.398       .  S
O506        C508   1.268       .  A
O507       Zr536   2.464       .  S
O507        C508   1.285       .  A
C508        C570   1.488       .  S
Zr509       O510   2.437       .  S
Zr509       O511   2.440       .  S
Zr509       O515   2.381       .  S
Zr509       O516   2.380       .  S
Zr509       O539   2.370       .  S
Zr509       O541   2.389       .  S
O510        H553   0.989       .  S
O511        H552   0.990       .  S
O511        H556   0.990       .  S
Zr512      O1301   2.421       .  S
Zr512       O513   2.436       .  S
Zr512      O1312   2.425       .  S
Zr512       O516   2.348       .  S
Zr512       O515   2.354       .  S
Zr512      O1338   2.368       .  S
Zr512      O1340   2.367       .  S
O513        H554   0.990       .  S
O513        H557   0.990       .  S
O514      Zr1310   2.429   1_554  S
O514        H547   0.991       .  S
O515       Zr535   2.385       .  S
O516       Zr536   2.406       .  S
O516        H543   0.961       .  S
O517       Zr529   2.580       .  S
O517        C519   1.314       .  A
O518       Zr536   2.405       .  S
O518        C519   1.288       .  A
O520       Zr532   2.402       .  S
O520        C522   1.272       .  A
O521      Zr1333   2.488   1_554  S
O521        C522   1.295       .  A
C522        C780   1.493       .  S
O523       Zr532   2.392       .  S
O523        C525   1.276       .  A
O524      Zr1334   2.468   1_554  S
O524        C525   1.294       .  A
C525        C560   1.476       .  S
O526       Zr529   2.605       .  S
O526       C1326   1.320       .  A
O527      Zr1333   2.382       .  S
O527        C528   1.285       .  A
C528       O1324   1.322   1_556  A
Zr529       O531   2.434       .  S
Zr529      O1328   2.436       .  S
Zr529       O541   2.377       .  S
Zr529       O539   2.389       .  S
Zr529      O1335   2.412       .  S
Zr529      O1336   2.381       .  S
O530      Zr1327   2.433       .  S
O530        H550   0.990       .  S
O530        H555   0.990       .  S
O531        H551   0.990       .  S
Zr532       O533   2.436       .  S
Zr532       O534   2.440       .  S
Zr532       O538   2.350       .  S
Zr532       O537   2.375       .  S
Zr532       O542   2.357       .  S
Zr532       O540   2.364       .  S
O533        H549   0.990       .  S
O534        H548   0.990       .  S
O534        H558   0.990       .  S
Zr535      O1302   2.538       .  S
Zr535      O1319   2.488       .  S
Zr535      O1325   2.384       .  S
Zr535       O541   2.434       .  S
Zr535      O1336   2.405       .  S
Zr535      O1338   2.383       .  S
Zr536      O1322   2.474       .  S
Zr536       O539   2.427       .  S
Zr536      O1335   2.419       .  S
Zr536      O1340   2.381       .  S
O537      Zr1327   2.419       .  S
O537      Zr1334   2.413   1_554  S
O537        H545   0.966       .  S
O538      Zr1327   2.369       .  S
O538      Zr1333   2.404   1_554  S
O540      Zr1310   2.361   1_554  S
O540      Zr1333   2.386   1_554  S
O540        H544   0.965       .  S
O541        H546   0.965       .  S
O542      Zr1310   2.372   1_554  S
O542      Zr1334   2.376   1_554  S
C559        C560   1.407       .  A
C559        C564   1.401       .  A
C559        H566   1.084       .  S
C560        C561   1.406       .  A
C561        C562   1.405       .  A
C561       Br568   1.918       .  S
C562        C563   1.406       .  A
C562        H567   1.078       .  S
C563        C564   1.408       .  A
C564       Br565   1.918       .  S
C569        C570   1.402       .  A
C569        C574   1.398       .  A
C569        H576   1.081       .  S
C570        C571   1.415       .  A
C571        C572   1.410       .  A
C571       Br578   1.920       .  S
C572        C573   1.407       .  A
C572        H577   1.083       .  S
C573        C574   1.410       .  A
C574       Br575   1.919       .  S
C579        C580   1.412       .  A
C579        C584   1.397       .  A
C579        H586   1.084       .  S
C580        C581   1.399       .  A
C581        C582   1.397       .  A
C581       Br588   1.918       .  S
C582        C583   1.414       .  A
C582        H587   1.084       .  S
C583        C584   1.403       .  A
C584       Br585   1.918       .  S
C589        C590   1.417       .  A
C589        C594   1.408       .  A
C589        H596   1.081       .  S
C590        C591   1.409       .  A
C591        C592   1.399       .  A
C591       Br598   1.923       .  S
C592        C593   1.416       .  A
C592        H597   1.081       .  S
C593        C594   1.409       .  A
C594       Br595   1.917       .  S
C599        C600   1.416       .  A
C599        C604   1.392       .  A
C599        H606   1.083       .  S
C600        C601   1.408       .  A
C601        C602   1.403       .  A
C601       Br608   1.919       .  S
C602        C603   1.414       .  A
C602        H607   1.083       .  S
C603        C604   1.405       .  A
C604       Br605   1.923       .  S
C609        C610   1.400       .  A
C609        C614   1.396       .  A
C609        H616   1.083       .  S
C610        C611   1.410       .  A
C611        C612   1.398       .  A
C611       Br618   1.921       .  S
C612        C613   1.402       .  A
C612        H617   1.084       .  S
C613        C614   1.405       .  A
C614       Br615   1.919       .  S
C619        C620   1.408       .  A
C619        C624   1.403       .  A
C619        H626   1.083       .  S
C620        C621   1.406       .  A
C621        C622   1.398       .  A
C621       Br628   1.919       .  S
C622        C623   1.411       .  A
C622        H627   1.084       .  S
C623        C624   1.407       .  A
C624       Br625   1.917       .  S
C629        C630   1.413       .  A
C629        C634   1.397       .  A
C629        H636   1.083       .  S
C630        C631   1.405       .  A
C631        C632   1.400       .  A
C631       Br638   1.918       .  S
C632        C633   1.413       .  A
C632        H637   1.083       .  S
C633        C634   1.407       .  A
C634       Br635   1.921       .  S
C639        C640   1.399       .  A
C639        C644   1.400       .  A
C639        H646   1.083       .  S
C640        C641   1.430       .  A
C641        C642   1.403       .  A
C641       Br648   1.912       .  S
C642        C643   1.393       .  A
C642        H647   1.084       .  S
C643        C644   1.418       .  A
C644       Br645   1.918       .  S
C649        C650   1.409       .  A
C649        C654   1.395       .  A
C649        H656   1.084       .  S
C650        C651   1.408       .  A
C651        C652   1.406       .  A
C651       Br658   1.918       .  S
C652        C653   1.411       .  A
C652        H657   1.084       .  S
C653        C654   1.406       .  A
C654       Br655   1.916       .  S
C659        C660   1.406       .  A
C659        C664   1.396       .  A
C659        H666   1.084       .  S
C660        C661   1.411       .  A
C661        C662   1.400       .  A
C661       Br668   1.917       .  S
C662        C663   1.401       .  A
C662        H667   1.082       .  S
C663        C664   1.407       .  A
C664       Br665   1.920       .  S
C669        C670   1.416       .  A
C669        C674   1.388       .  A
C669        H676   1.083       .  S
C670        C671   1.409       .  A
C671        C672   1.408       .  A
C671       Br678   1.916       .  S
C672        C673   1.412       .  A
C672        H677   1.083       .  S
C673        C674   1.402       .  A
C674       Br675   1.920       .  S
C679        C680   1.416       .  A
C679        C684   1.400       .  A
C679        H686   1.083       .  S
C680        C681   1.412       .  A
C681        C682   1.408       .  A
C681       Br688   1.918       .  S
C682        C683   1.412       .  A
C682        H687   1.083       .  S
C683        C684   1.405       .  A
C684       Br685   1.914       .  S
C689        C690   1.408       .  A
C689        C694   1.401       .  A
C689        H696   1.082       .  S
C690        C691   1.405       .  A
C691        C692   1.402       .  A
C691       Br698   1.916       .  S
C692        C693   1.408       .  A
C692        H697   1.084       .  S
C693        C694   1.404       .  A
C694       Br695   1.921       .  S
C699        C700   1.403       .  A
C699        C704   1.396       .  A
C699        H706   1.084       .  S
C700        C701   1.410       .  A
C701        C702   1.402       .  A
C701       Br708   1.918       .  S
C702        C703   1.406       .  A
C702        H707   1.084       .  S
C703        C704   1.409       .  A
C704       Br705   1.917       .  S
C709        C710   1.392       .  A
C709        C714   1.402       .  A
C709        H716   1.084       .  S
C710        C711   1.425       .  A
C711        C712   1.403       .  A
C711       Br718   1.923       .  S
C712        C713   1.399       .  A
C712        H717   1.083       .  S
C713        C714   1.432       .  A
C714       Br715   1.912   1_455  S
C719        C720   1.402       .  A
C719        C724   1.398       .  A
C719        H726   1.081       .  S
C720        C721   1.414       .  A
C721        C722   1.409       .  A
C721       Br728   1.916       .  S
C722        C723   1.408       .  A
C722        H727   1.083       .  S
C723        C724   1.409       .  A
C724       Br725   1.907       .  S
C729        C730   1.411       .  A
C729        C734   1.400       .  A
C729        H736   1.083       .  S
C730        C731   1.409       .  A
C731        C732   1.405       .  A
C731       Br738   1.915       .  S
C732        C733   1.410       .  A
C732        H737   1.082       .  S
C733        C734   1.405       .  A
C734       Br735   1.918       .  S
C739        C740   1.408       .  A
C739        C744   1.408       .  A
C739        H746   1.083       .  S
C740        C741   1.403       .  A
C741        C742   1.398       .  A
C741       Br748   1.913       .  S
C742        C743   1.400       .  A
C742        H747   1.079       .  S
C743        C744   1.410       .  A
C744       Br745   1.917       .  S
C749        C750   1.394       .  A
C749        C754   1.404       .  A
C749        H756   1.084       .  S
C750        C751   1.419       .  A
C751        C752   1.406       .  A
C751       Br758   1.919       .  S
C752        C753   1.402       .  A
C752        H757   1.083       .  S
C753        C754   1.433       .  A
C754       Br755   1.921       .  S
C759        C760   1.409       .  A
C759        C764   1.403       .  A
C759        H766   1.083       .  S
C760        C761   1.402       .  A
C761        C762   1.396       .  A
C761       Br768   1.917       .  S
C762        C763   1.410       .  A
C762        H767   1.082       .  S
C763        C764   1.410       .  A
C764       Br765   1.920       .  S
C769        C770   1.413       .  A
C769        C774   1.394       .  A
C769        H776   1.083       .  S
C770        C771   1.412       .  A
C771        C772   1.406       .  A
C771       Br778   1.919       .  S
C772        C773   1.414       .  A
C772        H777   1.083       .  S
C773        C774   1.407       .  A
C774       Br775   1.919       .  S
C779        C780   1.396       .  A
C779        C784   1.402       .  A
C779        H786   1.083       .  S
C780        C781   1.424       .  A
C781        C782   1.400       .  A
C781       Br788   1.926       .  S
C782        C783   1.398       .  A
C782        H787   1.083       .  S
C783        C784   1.433       .  A
C784       Br785   1.928   1_545  S
C789        C790   1.408       .  A
C789        C794   1.401       .  A
C789        H796   1.083       .  S
C790        C791   1.406       .  A
C791        C792   1.399       .  A
C791       Br798   1.919       .  S
C792        C793   1.411       .  A
C792        H797   1.084       .  S
C793        C794   1.404       .  A
C794       Br795   1.916       .  S
O799       Zr811   2.503       .  S
O799        C801   1.297       .  A
O800       Zr837   2.328       .  S
O800        C801   1.267       .  A
C801       C1591   1.465       .  S
O802       Zr814   2.510       .  S
O802        C804   1.296       .  A
O803       Zr838   2.390       .  S
O803        C804   1.273       .  A
C804       C1521   1.498       .  S
O805       Zr814   2.511       .  S
O805        C807   1.298       .  A
O806       Zr837   2.359   1_565  S
O806        C807   1.271       .  A
C807       C1531   1.480       .  S
O808       Zr811   2.531       .  S
O808        C810   1.305       .  A
O809       Zr838   2.355       .  S
O809        C810   1.267   1_565  A
C810       C1581   1.500       .  S
Zr811       O812   2.434       .  S
Zr811       O813   2.436       .  S
Zr811       O817   2.300   1_545  S
Zr811       O841   2.285       .  S
Zr811       O818   2.355   1_545  S
Zr811       O843   2.388       .  S
O812        H855   0.990       .  S
O813        H854   0.989       .  S
O813        H858   0.990       .  S
Zr814       O815   2.440       .  S
Zr814       O816   2.434       .  S
Zr814       O817   2.296       .  S
Zr814       O844   2.306       .  S
Zr814       O818   2.382       .  S
Zr814       O842   2.389       .  S
O815        H856   0.990       .  S
O815        H859   0.990       .  S
O816        H849   0.991       .  S
O817       Zr837   2.267   1_565  S
O818       Zr838   2.375       .  S
O818        H845   0.964       .  S
O819       Zr831   2.492       .  S
O819        C821   1.295       .  A
O820       Zr838   2.366   1_545  S
O820        C821   1.273       .  A
C821       C1558   1.478       .  S
O822       Zr834   2.514       .  S
O822        C824   1.301       .  A
O823       Zr837   2.372   1_565  S
O823        C824   1.270       .  A
C824       C1551   1.502       .  S
O825       Zr834   2.509       .  S
O825        C827   1.297       .  A
O826       Zr838   2.347       .  S
O826        C827   1.271       .  A
C827       C1538   1.469       .  S
O828       Zr831   2.484       .  S
O828        C830   1.291       .  A
O829       Zr837   2.374       .  S
O829        C830   1.269       .  A
C830       C1568   1.479       .  S
Zr831       O832   2.438       .  S
Zr831       O833   2.435       .  S
Zr831       O840   2.286       .  S
Zr831       O841   2.290       .  S
Zr831       O839   2.369   1_545  S
Zr831       O843   2.379       .  S
O832        H852   0.990       .  S
O832        H857   0.990       .  S
O833        H853   0.990       .  S
Zr834       O835   2.435       .  S
Zr834       O836   2.437       .  S
Zr834       O840   2.284   1_565  S
Zr834       O844   2.304       .  S
Zr834       O839   2.391       .  S
Zr834       O842   2.387       .  S
O835        H851   0.990       .  S
O836        H850   0.990       .  S
O836        H860   0.990       .  S
Zr837       O840   2.259       .  S
Zr837       O842   2.375   1_545  S
Zr837       O843   2.376       .  S
Zr838       O841   2.266   1_565  S
Zr838       O844   2.267       .  S
Zr838       O839   2.383       .  S
O839        H847   0.967   1_565  S
O842        H846   0.964       .  S
O843        H848   0.964       .  S
O861       Zr873   2.519       .  S
O861        C863   1.303       .  A
O862       Zr899   2.368       .  S
O862        C863   1.271   1_655  A
C863       C1511   1.506       .  S
O864       Zr876   2.535       .  S
O864        C866   1.303       .  A
O865       Zr900   2.376   1_655  S
O865        C866   1.275       .  A
C866       C1438   1.504       .  S
O867       Zr876   2.497       .  S
O867        C869   1.293       .  A
O868       Zr899   2.355       .  S
O868        C869   1.263       .  A
C869       C1448   1.479       .  S
O870       Zr873   2.505       .  S
O870        C872   1.299       .  A
O871       Zr900   2.347       .  S
O871        C872   1.273       .  A
C872       C1498   1.465       .  S
Zr873       O874   2.436       .  S
Zr873       O875   2.435       .  S
Zr873       O879   2.282   1_455  S
Zr873       O903   2.294       .  S
Zr873       O880   2.385   1_455  S
Zr873       O905   2.377       .  S
O874        H917   0.989       .  S
O875        H916   0.990       .  S
O875        H920   0.990       .  S
Zr876       O877   2.440       .  S
Zr876       O878   2.436       .  S
Zr876       O879   2.293       .  S
Zr876       O906   2.293       .  S
Zr876       O880   2.348       .  S
Zr876       O904   2.386       .  S
O877        H918   0.990       .  S
O877        H921   0.991       .  S
O878        H911   0.989       .  S
O879       Zr899   2.271       .  S
O880       Zr900   2.382   1_655  S
O880        H907   0.963       .  S
O881       Zr893   2.494       .  S
O881        C883   1.283       .  A
O882       Zr900   2.374       .  S
O882        C883   1.259       .  A
C883       C1478   1.501       .  S
O884       Zr896   2.500       .  S
O884        C886   1.287       .  A
O885       Zr899   2.368       .  S
O885        C886   1.259       .  A
C886       C1468   1.497       .  S
O887       Zr896   2.459       .  S
O887        C889   1.290       .  A
O888       Zr900   2.400   1_655  S
O888        C889   1.281       .  A
C889       C1461   1.467       .  S
O890       Zr893   2.487       .  S
O890        C892   1.296       .  A
O891       Zr899   2.399   1_455  S
O891        C892   1.281       .  A
C892       C1488   1.483       .  S
Zr893       O894   2.434       .  S
Zr893       O895   2.437       .  S
Zr893       O902   2.279   1_455  S
Zr893       O903   2.302       .  S
Zr893       O901   2.407       .  S
Zr893       O905   2.393       .  S
O894        H914   0.990       .  S
O894        H919   0.991       .  S
O895        H915   0.989       .  S
Zr896       O897   2.437       .  S
Zr896       O898   2.437       .  S
Zr896       O902   2.277       .  S
Zr896       O906   2.313       .  S
Zr896       O901   2.365   1_655  S
Zr896       O904   2.382       .  S
O897        H913   0.990       .  S
O898        H912   0.990       .  S
O898        H922   0.989       .  S
Zr899       O902   2.264       .  S
Zr899       O904   2.391       .  S
Zr899       O905   2.383   1_655  S
Zr900       O903   2.273       .  S
Zr900       O906   2.266   1_455  S
Zr900       O901   2.389       .  S
O901        H909   0.965       .  S
O904        H908   0.965       .  S
O905        H910   0.965       .  S
O923       Zr935   2.486       .  S
O923        C925   1.293       .  A
O924       Zr961   2.357       .  S
O924        C925   1.272       .  A
C925       C1411   1.457       .  S
O926       Zr938   2.505       .  S
O926        C928   1.297       .  A
O927       Zr962   2.315       .  S
O927        C928   1.265       .  A
C928       C1421   1.469       .  S
O929       Zr938   2.506       .  S
O929        C931   1.299       .  A
O930       Zr961   2.344       .  S
O930        C931   1.272       .  A
C931       C1428   1.481       .  S
O932       Zr935   2.484       .  S
O932        C934   1.288       .  A
O933       Zr962   2.367       .  S
O933        C934   1.261       .  A
C934       C1398   1.490       .  S
Zr935       O936   2.437       .  S
Zr935       O937   2.440       .  S
Zr935       O941   2.293       .  S
Zr935       O965   2.287       .  S
Zr935       O942   2.384       .  S
Zr935       O967   2.371       .  S
O936        H979   0.991       .  S
O937        H978   0.990       .  S
O937        H982   0.991       .  S
Zr938       O939   2.436       .  S
Zr938       O940   2.435       .  S
Zr938       O941   2.292       .  S
Zr938       O968   2.292       .  S
Zr938       O942   2.370       .  S
Zr938       O966   2.355       .  S
O939        H980   0.991       .  S
O939        H983   0.990       .  S
O940        H973   0.990       .  S
O941       Zr961   2.270       .  S
O942       Zr962   2.378       .  S
O942        H969   0.970       .  S
O943       Zr955   2.503       .  S
O943        C945   1.299       .  A
O944       Zr962   2.358       .  S
O944        C945   1.271       .  A
C945       C1381   1.486       .  S
O946       Zr958   2.518       .  S
O946        C948   1.299       .  A
O947       Zr961   2.354       .  S
O947        C948   1.273       .  A
C948       C1371   1.476       .  S
O949       Zr958   2.502       .  S
O949        C951   1.298       .  A
O950       Zr962   2.362       .  S
O950        C951   1.272       .  A
C951       C1361   1.474       .  S
O952       Zr955   2.503       .  S
O952        C954   1.286       .  A
O953       Zr961   2.378       .  S
O953        C954   1.262       .  A
C954       C1391   1.505       .  S
Zr955       O956   2.437       .  S
Zr955       O957   2.435       .  S
Zr955       O964   2.307       .  S
Zr955       O965   2.286       .  S
Zr955       O963   2.383       .  S
Zr955       O967   2.398       .  S
O956        H976   0.990       .  S
O956        H981   0.990       .  S
O957        H977   0.991       .  S
Zr958       O959   2.436       .  S
Zr958       O960   2.438       .  S
Zr958       O964   2.295       .  S
Zr958       O968   2.295       .  S
Zr958       O963   2.388       .  S
Zr958       O966   2.376       .  S
O959        H975   0.990       .  S
O960        H974   0.990       .  S
O960        H984   0.990       .  S
Zr961       O964   2.258       .  S
Zr961       O966   2.374       .  S
Zr961       O967   2.387       .  S
Zr962       O965   2.268       .  S
Zr962       O968   2.261       .  S
Zr962       O963   2.375       .  S
O963        H971   0.964       .  S
O966        H970   0.961       .  S
O967        H972   0.967       .  S
O985       Zr997   2.408       .  S
O985        C987   1.284       .  A
O986      Zr1023   2.539       .  S
O986        C987   1.303       .  A
O988      Zr1000   2.412       .  S
O988        C990   1.274       .  A
O989      Zr1024   2.451       .  S
O989        C990   1.285       .  A
C990       C1388   1.498       .  S
O991      Zr1000   2.389       .  S
O991        C993   1.263       .  A
O992        C993   1.294       .  A
C993       C1451   1.475       .  S
O994        C996   1.281       .  A
O995      Zr1024   2.518       .  S
O995        C996   1.299       .  A
C996       C1300   1.510       .  S
Zr997       O999   2.438       .  S
Zr997      O1027   2.361       .  S
Zr997      O1029   2.354       .  S
O998       H1041   0.990       .  S
O999       H1040   0.990       .  S
O999       H1044   0.990       .  S
Zr1000     O1001   2.437       .  S
Zr1000     O1002   2.434       .  S
Zr1000     O1004   2.378       .  S
Zr1000     O1003   2.384       .  S
Zr1000     O1028   2.395       .  S
Zr1000     O1030   2.362       .  S
O1001      H1042   0.990       .  S
O1001      H1045   0.989       .  S
O1002      H1035   0.990       .  S
O1004     Zr1024   2.403       .  S
O1004      H1031   0.965       .  S
O1005     Zr1017   2.398       .  S
O1005      C1007   1.277       .  A
O1006      C1007   1.291       .  A
C1007      C1378   1.473       .  S
O1008     Zr1020   2.562       .  S
O1009     Zr1023   2.405       .  S
O1009      C1010   1.291       .  A
O1011     Zr1020   2.565       .  S
O1011      C1013   1.310       .  A
O1012     Zr1024   2.403       .  S
O1012      C1013   1.289       .  A
C1013      C1193   1.525   1_556  S
O1014     Zr1017   2.412       .  S
O1014      C1016   1.274       .  A
O1015     Zr1023   2.473       .  S
O1015      C1016   1.293       .  A
C1016      C1441   1.498       .  S
Zr1017     O1018   2.440       .  S
Zr1017     O1019   2.435       .  S
Zr1017     O1025   2.375       .  S
Zr1017     O1026   2.360       .  S
Zr1017     O1029   2.363       .  S
Zr1017     O1027   2.363       .  S
O1018      H1038   0.990       .  S
O1018      H1043   0.990       .  S
O1019      H1039   0.990       .  S
Zr1020     O1022   2.435       .  S
Zr1020     O1030   2.393       .  S
Zr1020     O1028   2.381       .  S
O1021      H1037   0.990       .  S
O1022      H1036   0.990       .  S
O1022      H1046   0.990       .  S
Zr1023     O1026   2.421       .  S
Zr1023     O1029   2.389       .  S
Zr1024     O1030   2.421       .  S
O1025      H1033   0.965       .  S
O1028      H1032   0.965       .  S
O1029      H1034   0.965       .  S
O1047     Zr1059   2.398       .  S
O1047      C1049   1.282       .  A
O1048     Zr1085   2.551       .  S
O1048      C1049   1.306       .  A
O1050     Zr1062   2.405       .  S
O1050      C1052   1.270       .  A
O1051     Zr1086   2.445       .  S
O1051      C1052   1.283       .  A
C1052      C1471   1.484       .  S
O1053     Zr1062   2.405       .  S
O1053      C1055   1.271       .  A
O1054      C1055   1.289       .  A
C1055      C1571   1.476       .  S
O1056      C1058   1.284       .  A
O1057     Zr1086   2.548       .  S
O1057      C1058   1.304       .  A
Zr1059     O1061   2.435       .  S
Zr1059     O1089   2.351       .  S
Zr1059     O1091   2.367       .  S
O1060      H1103   0.990       .  S
O1061      H1102   0.990       .  S
O1061      H1106   0.990       .  S
Zr1062     O1063   2.437       .  S
Zr1062     O1064   2.436       .  S
Zr1062     O1066   2.388       .  S
Zr1062     O1065   2.378       .  S
Zr1062     O1090   2.379       .  S
Zr1062     O1092   2.371       .  S
O1063      H1104   0.989       .  S
O1063      H1107   0.990       .  S
O1064      H1097   0.990       .  S
O1066     Zr1086   2.406       .  S
O1066      H1093   0.953       .  S
O1067     Zr1079   2.402       .  S
O1067      C1069   1.268       .  A
O1068      C1069   1.279       .  A
C1069      C1458   1.477       .  S
O1070     Zr1082   2.551       .  S
O1071     Zr1085   2.435       .  S
O1071      C1072   1.297       .  A
C1072      C1202   1.524   1_545  S
O1073     Zr1082   2.567       .  S
O1073      C1075   1.310       .  A
O1074     Zr1086   2.394       .  S
O1074      C1075   1.287       .  A
O1076     Zr1079   2.395       .  S
O1076      C1078   1.266       .  A
O1077     Zr1085   2.451       .  S
O1077      C1078   1.279       .  A
C1078      C1561   1.488       .  S
Zr1079     O1080   2.436       .  S
Zr1079     O1081   2.436       .  S
Zr1079     O1087   2.381       .  S
Zr1079     O1088   2.363       .  S
Zr1079     O1091   2.385       .  S
Zr1079     O1089   2.374       .  S
O1080      H1100   0.989       .  S
O1080      H1105   0.990       .  S
O1081      H1101   0.990       .  S
Zr1082     O1084   2.436       .  S
Zr1082     O1092   2.380       .  S
Zr1082     O1090   2.411       .  S
O1083      H1099   0.990       .  S
O1084      H1098   0.990       .  S
O1084      H1108   0.990       .  S
Zr1085     O1088   2.421       .  S
Zr1085     O1091   2.407       .  S
Zr1086     O1092   2.422       .  S
O1087      H1095   0.964       .  S
O1090      H1094   0.964       .  S
O1091      H1096   0.965       .  S
O1109     Zr1121   2.398       .  S
O1109      C1111   1.282       .  A
O1110     Zr1147   2.534       .  S
O1110      C1111   1.303       .  A
C1111      C1179   1.518       .  S
O1112     Zr1124   2.370       .  S
O1112      C1114   1.271       .  A
O1113     Zr1148   2.501   1_556  S
O1113      C1114   1.302       .  A
C1114      C1508   1.494       .  S
O1115     Zr1124   2.392       .  S
O1115      C1117   1.266       .  A
O1116      C1117   1.288       .  A
C1117      C1528   1.488       .  S
O1118      C1120   1.282       .  A
O1119     Zr1148   2.557       .  S
O1119      C1120   1.307       .  A
Zr1121     O1123   2.434       .  S
Zr1121     O1151   2.345       .  S
Zr1121     O1153   2.360       .  S
O1122      H1165   0.990       .  S
O1123      H1164   0.990       .  S
O1123      H1168   0.989       .  S
Zr1124     O1125   2.440       .  S
Zr1124     O1126   2.441       .  S
Zr1124     O1128   2.371       .  S
Zr1124     O1127   2.355       .  S
Zr1124     O1152   2.373       .  S
Zr1124     O1154   2.357       .  S
O1125      H1166   0.990       .  S
O1125      H1169   0.989       .  S
O1126      H1159   0.989       .  S
O1128     Zr1148   2.371   1_556  S
O1128      H1155   0.966       .  S
O1129     Zr1141   2.392       .  S
O1129      C1131   1.264       .  A
O1130      C1131   1.292       .  A
C1131      C1501   1.472       .  S
O1132     Zr1144   2.554   1_554  S
O1133     Zr1147   2.431       .  S
O1133      C1134   1.295       .  A
C1134      C1326   1.526   1_565  S
O1135     Zr1144   2.575       .  S
O1135      C1137   1.314       .  A
O1136     Zr1148   2.392       .  S
O1136      C1137   1.288   1_554  A
O1138     Zr1141   2.406       .  S
O1138      C1140   1.271       .  A
O1139     Zr1147   2.453       .  S
O1139      C1140   1.286       .  A
C1140      C1518   1.491       .  S
Zr1141     O1142   2.438       .  S
Zr1141     O1143   2.437       .  S
Zr1141     O1149   2.390       .  S
Zr1141     O1150   2.370       .  S
Zr1141     O1153   2.379       .  S
Zr1141     O1151   2.380       .  S
O1142      H1162   0.990       .  S
O1142      H1167   0.990       .  S
O1143      H1163   0.989       .  S
Zr1144     O1146   2.435       .  S
Zr1144     O1154   2.391       .  S
Zr1144     O1152   2.409       .  S
O1145      H1161   0.990       .  S
O1146      H1160   0.990       .  S
O1146      H1170   0.990       .  S
Zr1147     O1150   2.428       .  S
Zr1147     O1153   2.407       .  S
Zr1148     O1154   2.408   1_554  S
O1149      H1157   0.965       .  S
O1152      H1156   0.965       .  S
O1153      H1158   0.964       .  S
O1171     Zr1183   2.390       .  S
O1171      C1173   1.277       .  A
O1172      C1173   1.298       .  A
C1173      C1548   1.483       .  S
O1174      C1176   1.279       .  A
O1175     Zr1210   2.553       .  S
O1175      C1176   1.307       .  A
C1176      C1244   1.525       .  S
O1177     Zr1186   2.412       .  S
O1177      C1179   1.285       .  A
O1178     Zr1209   2.517       .  S
O1178      C1179   1.298       .  A
O1180     Zr1183   2.412       .  S
O1180      C1182   1.270       .  A
O1181     Zr1210   2.442   1_556  S
O1181      C1182   1.281       .  A
C1182      C1408   1.464       .  S
Zr1183     O1184   2.436       .  S
Zr1183     O1185   2.438       .  S
Zr1183     O1189   2.375       .  S
Zr1183     O1190   2.372       .  S
Zr1183     O1213   2.352       .  S
Zr1183     O1215   2.375       .  S
O1184      H1227   0.990       .  S
O1185      H1226   0.989       .  S
O1185      H1230   0.990       .  S
Zr1186     O1188   2.436       .  S
Zr1186     O1214   2.355       .  S
Zr1186     O1216   2.367       .  S
O1187      H1228   0.987       .  S
O1187      H1231   0.989       .  S
O1188      H1221   0.990       .  S
O1190     Zr1210   2.398   1_556  S
O1190      H1217   0.965       .  S
O1191     Zr1203   2.579       .  S
O1191      C1193   1.315   1_556  A
O1192     Zr1210   2.402       .  S
O1192      C1193   1.290       .  A
O1194     Zr1206   2.394       .  S
O1194      C1196   1.264       .  A
O1195     Zr1209   2.479       .  S
O1195      C1196   1.285       .  A
C1196      C1541   1.479       .  S
O1197     Zr1206   2.399       .  S
O1197      C1199   1.273       .  A
O1198      C1199   1.290       .  A
C1199      C1401   1.486       .  S
O1200     Zr1203   2.595       .  S
O1201     Zr1209   2.373       .  S
O1201      C1202   1.282       .  A
Zr1203     O1205   2.434       .  S
Zr1203     O1215   2.395       .  S
Zr1203     O1213   2.380       .  S
O1204      H1224   0.990       .  S
O1204      H1229   0.990       .  S
O1205      H1225   0.990       .  S
Zr1206     O1207   2.437       .  S
Zr1206     O1208   2.434       .  S
Zr1206     O1212   2.374       .  S
Zr1206     O1211   2.372       .  S
Zr1206     O1216   2.363       .  S
Zr1206     O1214   2.396       .  S
O1207      H1223   0.990       .  S
O1208      H1222   0.989       .  S
O1208      H1232   0.990       .  S
Zr1209     O1212   2.427       .  S
Zr1209     O1214   2.408       .  S
Zr1210     O1213   2.423   1_554  S
O1211      H1219   0.964       .  S
O1214      H1218   0.967       .  S
O1215      H1220   0.965       .  S
O1233     Zr1245   2.413       .  S
O1233      C1235   1.285       .  A
O1234     Zr1271   2.533       .  S
O1234      C1235   1.301       .  A
O1236     Zr1248   2.419       .  S
O1236      C1238   1.274       .  A
O1237     Zr1272   2.427   1_556  S
O1237      C1238   1.277       .  A
C1238      C1431   1.477       .  S
O1239     Zr1248   2.416       .  S
O1239      C1241   1.281       .  A
O1240      C1241   1.294       .  A
C1241      C1491   1.479       .  S
O1242      C1244   1.288       .  A
O1243     Zr1272   2.528       .  S
O1243      C1244   1.300       .  A
Zr1245     O1247   2.436       .  S
Zr1245     O1275   2.359       .  S
Zr1245     O1277   2.355       .  S
O1246      H1289   0.990       .  S
O1247      H1288   0.990       .  S
O1247      H1292   0.990       .  S
Zr1248     O1249   2.438       .  S
Zr1248     O1250   2.435       .  S
Zr1248     O1252   2.374       .  S
Zr1248     O1251   2.372       .  S
Zr1248     O1276   2.368       .  S
Zr1248     O1278   2.355       .  S
O1249      H1290   0.990       .  S
O1249      H1293   0.990       .  S
O1250      H1283   0.990       .  S
O1252     Zr1272   2.408   1_556  S
O1252      H1279   0.967       .  S
O1253     Zr1265   2.388       .  S
O1253      C1255   1.262       .  A
O1254      C1255   1.293       .  A
C1255      C1418   1.478       .  S
O1256     Zr1268   2.570       .  S
O1257     Zr1271   2.401       .  S
O1257      C1258   1.288       .  A
O1259     Zr1268   2.579       .  S
O1259      C1261   1.315       .  A
O1260     Zr1272   2.410       .  S
O1260      C1261   1.291       .  A
C1261      C1317   1.527       .  S
O1262     Zr1265   2.391       .  S
O1262      C1264   1.268       .  A
O1263     Zr1271   2.457       .  S
O1263      C1264   1.283       .  A
C1264      C1481   1.493       .  S
Zr1265     O1266   2.440       .  S
Zr1265     O1267   2.435       .  S
Zr1265     O1273   2.389       .  S
Zr1265     O1274   2.372       .  S
Zr1265     O1277   2.392       .  S
Zr1265     O1275   2.383       .  S
O1266      H1286   0.990       .  S
O1266      H1291   0.990       .  S
O1267      H1287   0.989       .  S
Zr1268     O1270   2.436   1_554  S
Zr1268     O1278   2.369   1_554  S
Zr1268     O1276   2.407   1_554  S
O1269      H1285   0.991       .  S
O1270      H1284   0.990       .  S
O1270      H1294   0.990       .  S
Zr1271     O1274   2.430       .  S
Zr1271     O1277   2.409       .  S
Zr1272     O1278   2.427   1_554  S
O1273      H1281   0.965       .  S
O1276      H1280   0.966       .  S
O1277      H1282   0.966       .  S
O1295     Zr1307   2.389       .  S
O1295      C1297   1.265       .  A
O1296     Zr1333   2.495       .  S
O1296      C1297   1.296       .  A
C1297      C1588   1.474       .  S
O1298     Zr1310   2.405       .  S
O1298      C1300   1.284       .  A
O1299     Zr1334   2.514       .  S
O1299      C1300   1.298       .  A
O1304     Zr1307   2.404       .  S
O1304      C1306   1.270       .  A
O1305     Zr1334   2.446       .  S
O1305      C1306   1.282       .  A
C1306      C1368   1.481       .  S
Zr1307     O1308   2.438       .  S
Zr1307     O1309   2.441       .  S
Zr1307     O1313   2.383       .  S
Zr1307     O1314   2.382       .  S
Zr1307     O1337   2.370       .  S
Zr1307     O1339   2.391       .  S
O1308      H1351   0.989       .  S
O1309      H1350   0.990       .  S
O1309      H1354   0.990       .  S
Zr1310     O1311   2.438       .  S
Zr1310     O1314   2.351       .  S
Zr1310     O1313   2.354       .  S
O1311      H1352   0.990       .  S
O1311      H1355   0.990       .  S
O1312      H1345   0.990       .  S
O1313     Zr1333   2.382       .  S
O1314     Zr1334   2.409       .  S
O1314      H1341   0.964       .  S
O1315     Zr1327   2.568       .  S
O1315      C1317   1.311       .  A
O1316     Zr1334   2.409   1_554  S
O1316      C1317   1.289       .  A
O1318     Zr1330   2.384       .  S
O1318      C1320   1.276       .  A
O1319      C1320   1.298       .  A
C1320      C1578   1.485       .  S
O1321     Zr1330   2.385       .  S
O1321      C1323   1.275       .  A
O1322      C1323   1.295       .  A
C1323      C1358   1.474       .  S
O1324     Zr1327   2.608       .  S
O1325      C1326   1.285       .  A
Zr1327     O1329   2.434   1_554  S
Zr1327     O1339   2.383   1_554  S
Zr1327     O1337   2.384   1_554  S
O1328      H1348   0.990       .  S
O1328      H1353   0.990       .  S
O1329      H1349   0.991       .  S
Zr1330     O1331   2.436       .  S
Zr1330     O1332   2.438       .  S
Zr1330     O1336   2.352       .  S
Zr1330     O1335   2.372       .  S
Zr1330     O1340   2.354       .  S
Zr1330     O1338   2.356       .  S
O1331      H1347   0.990       .  S
O1332      H1346   0.990       .  S
O1332      H1356   0.990       .  S
Zr1333     O1339   2.435       .  S
Zr1334     O1337   2.427       .  S
O1335      H1343   0.966       .  S
O1338      H1342   0.965       .  S
O1339      H1344   0.965       .  S
C1357      C1358   1.407       .  A
C1357      C1362   1.400       .  A
C1357      H1364   1.084       .  S
C1358      C1359   1.406       .  A
C1359      C1360   1.404       .  A
C1359     Br1366   1.916       .  S
C1360      C1361   1.407       .  A
C1360      H1365   1.083       .  S
C1361      C1362   1.408       .  A
C1362     Br1363   1.920       .  S
C1367      C1368   1.401       .  A
C1367      C1372   1.395       .  A
C1367      H1374   1.081       .  S
C1368      C1369   1.414       .  A
C1369      C1370   1.408       .  A
C1369     Br1376   1.921       .  S
C1370      C1371   1.407       .  A
C1370      H1375   1.083       .  S
C1371      C1372   1.408       .  A
C1372     Br1373   1.918       .  S
C1377      C1378   1.409       .  A
C1377      C1382   1.397       .  A
C1377      H1384   1.084       .  S
C1378      C1379   1.403       .  A
C1379      C1380   1.401       .  A
C1379     Br1386   1.922       .  S
C1380      C1381   1.417       .  A
C1380      H1385   1.084       .  S
C1381      C1382   1.405       .  A
C1382     Br1383   1.917       .  S
C1387      C1388   1.416       .  A
C1387      C1392   1.408       .  A
C1387      H1394   1.082       .  S
C1388      C1389   1.410       .  A
C1389      C1390   1.397       .  A
C1389     Br1396   1.924       .  S
C1390      C1391   1.415       .  A
C1390      H1395   1.081       .  S
C1391      C1392   1.410       .  A
C1392     Br1393   1.916       .  S
C1397      C1398   1.416       .  A
C1397      C1402   1.394       .  A
C1397      H1404   1.083       .  S
C1398      C1399   1.407       .  A
C1399      C1400   1.400       .  A
C1399     Br1406   1.919       .  S
C1400      C1401   1.414       .  A
C1400      H1405   1.083       .  S
C1401      C1402   1.408       .  A
C1402     Br1403   1.923       .  S
C1407      C1408   1.401       .  A
C1407      C1412   1.396       .  A
C1407      H1414   1.083       .  S
C1408      C1409   1.412       .  A
C1409      C1410   1.398       .  A
C1409     Br1416   1.921       .  S
C1410      C1411   1.401       .  A
C1410      H1415   1.084       .  S
C1411      C1412   1.405       .  A
C1412     Br1413   1.918       .  S
C1417      C1418   1.410       .  A
C1417      C1422   1.402       .  A
C1417      H1424   1.083       .  S
C1418      C1419   1.407       .  A
C1419      C1420   1.399       .  A
C1419     Br1426   1.920       .  S
C1420      C1421   1.411       .  A
C1420      H1425   1.084       .  S
C1421      C1422   1.404       .  A
C1422     Br1423   1.917       .  S
C1427      C1428   1.414       .  A
C1427      C1432   1.395       .  A
C1427      H1434   1.083       .  S
C1428      C1429   1.404       .  A
C1429      C1430   1.396       .  A
C1429     Br1436   1.917       .  S
C1430      C1431   1.409       .  A
C1430      H1435   1.083       .  S
C1431      C1432   1.407       .  A
C1432     Br1433   1.923       .  S
C1437      C1438   1.404       .  A
C1437      C1442   1.410       .  A
C1437      H1444   1.083       .  S
C1438      C1439   1.423       .  A
C1439      C1440   1.400       .  A
C1439     Br1446   1.912       .  S
C1440      C1441   1.398       .  A
C1440      H1445   1.084       .  S
C1441      C1442   1.422       .  A
C1442     Br1443   1.923       .  S
C1447      C1448   1.409       .  A
C1447      C1452   1.394       .  A
C1447      H1454   1.084       .  S
C1448      C1449   1.409       .  A
C1449      C1450   1.404       .  A
C1449     Br1456   1.917       .  S
C1450      C1451   1.410       .  A
C1450      H1455   1.084       .  S
C1451      C1452   1.406       .  A
C1452     Br1453   1.915       .  S
C1457      C1458   1.406       .  A
C1457      C1462   1.395       .  A
C1457      H1464   1.083       .  S
C1458      C1459   1.411       .  A
C1459      C1460   1.402       .  A
C1459     Br1466   1.917       .  S
C1460      C1461   1.402       .  A
C1460      H1465   1.080       .  S
C1461      C1462   1.405       .  A
C1462     Br1463   1.920       .  S
C1467      C1468   1.414       .  A
C1467      C1472   1.388       .  A
C1467      H1474   1.083       .  S
C1468      C1469   1.410       .  A
C1469      C1470   1.410       .  A
C1469     Br1476   1.917       .  S
C1470      C1471   1.414       .  A
C1470      H1475   1.083       .  S
C1471      C1472   1.404       .  A
C1472     Br1473   1.919       .  S
C1477      C1478   1.414       .  A
C1477      C1482   1.397       .  A
C1477      H1484   1.083       .  S
C1478      C1479   1.413       .  A
C1479      C1480   1.408       .  A
C1479     Br1486   1.919       .  S
C1480      C1481   1.412       .  A
C1480      H1485   1.083       .  S
C1481      C1482   1.406       .  A
C1482     Br1483   1.916       .  S
C1487      C1488   1.407       .  A
C1487      C1492   1.402       .  A
C1487      H1494   1.082       .  S
C1488      C1489   1.406       .  A
C1489      C1490   1.403       .  A
C1489     Br1496   1.915       .  S
C1490      C1491   1.409       .  A
C1490      H1495   1.084       .  S
C1491      C1492   1.406       .  A
C1492     Br1493   1.920       .  S
C1497      C1498   1.404       .  A
C1497      C1502   1.397       .  A
C1497      H1504   1.084       .  S
C1498      C1499   1.408       .  A
C1499      C1500   1.400       .  A
C1499     Br1506   1.918       .  S
C1500      C1501   1.407       .  A
C1500      H1505   1.084       .  S
C1501      C1502   1.409       .  A
C1502     Br1503   1.916       .  S
C1507      C1508   1.392       .  A
C1507      C1512   1.403       .  A
C1507      H1514   1.084       .  S
C1508      C1509   1.427       .  A
C1509      C1510   1.403       .  A
C1509     Br1516   1.924       .  S
C1510      C1511   1.398       .  A
C1510      H1515   1.083       .  S
C1511      C1512   1.431       .  A
C1512     Br1513   1.911   1_455  S
C1517      C1518   1.400       .  A
C1517      C1522   1.398       .  A
C1517      H1524   1.083       .  S
C1518      C1519   1.416       .  A
C1519      C1520   1.411       .  A
C1519     Br1526   1.918       .  S
C1520      C1521   1.408       .  A
C1520      H1525   1.083       .  S
C1521      C1522   1.415       .  A
C1522     Br1523   1.907       .  S
C1527      C1528   1.412       .  A
C1527      C1532   1.402       .  A
C1527      H1534   1.084       .  S
C1528      C1529   1.408       .  A
C1529      C1530   1.405       .  A
C1529     Br1536   1.918       .  S
C1530      C1531   1.410       .  A
C1530      H1535   1.082       .  S
C1531      C1532   1.406       .  A
C1532     Br1533   1.919       .  S
C1537      C1538   1.407       .  A
C1537      C1542   1.408       .  A
C1537      H1544   1.083       .  S
C1538      C1539   1.401       .  A
C1539      C1540   1.404       .  A
C1539     Br1546   1.917       .  S
C1540      C1541   1.404       .  A
C1540      H1545   1.079       .  S
C1541      C1542   1.412       .  A
C1542     Br1543   1.917       .  S
C1547      C1548   1.392       .  A
C1547      C1552   1.400       .  A
C1547      H1554   1.084       .  S
C1548      C1549   1.418       .  A
C1549      C1550   1.403       .  A
C1549     Br1556   1.922       .  S
C1550      C1551   1.402       .  A
C1550      H1555   1.083       .  S
C1551      C1552   1.432       .  A
C1552     Br1553   1.920       .  S
C1557      C1558   1.409       .  A
C1557      C1562   1.402       .  A
C1557      H1564   1.083       .  S
C1558      C1559   1.402       .  A
C1559      C1560   1.399       .  A
C1559     Br1566   1.918       .  S
C1560      C1561   1.412       .  A
C1560      H1565   1.082       .  S
C1561      C1562   1.409       .  A
C1562     Br1563   1.920       .  S
C1567      C1568   1.406       .  A
C1567      C1572   1.397       .  A
C1567      H1574   1.084       .  S
C1568      C1569   1.411       .  A
C1569      C1570   1.403       .  A
C1569     Br1576   1.918       .  S
C1570      C1571   1.406       .  A
C1570      H1575   1.084       .  S
C1571      C1572   1.409       .  A
C1572     Br1573   1.916       .  S
C1577      C1578   1.392       .  A
C1577      C1582   1.402       .  A
C1577      H1584   1.083       .  S
C1578      C1579   1.417       .  A
C1579      C1580   1.402       .  A
C1579     Br1586   1.922       .  S
C1580      C1581   1.401       .  A
C1580      H1585   1.083       .  S
C1581      C1582   1.435       .  A
C1582     Br1583   1.927   1_545  S
C1587      C1588   1.408       .  A
C1587      C1592   1.402       .  A
C1587      H1594   1.083       .  S
C1588      C1589   1.407       .  A
C1589      C1590   1.399       .  A
C1589     Br1596   1.918       .  S
C1590      C1591   1.408       .  A
C1590      H1595   1.084       .  S
C1591      C1592   1.405       .  A
C1592     Br1593   1.917       .  S
