geometry optimzed in LAMMPS
_audit_creation_date              2020-11-30 
_audit_creation_method            'lammps2cif' 
_symmetry_space_group_name_H-M    'P1' 
_symmetry_Int_Tables_number       1 
_symmetry_cell_setting            triclinic 
loop_ 
_symmetry_equiv_pos_as_xyz 
  x,y,z 
_cell_length_a                    32.23537571 
_cell_length_b                    48.480290837044514 
_cell_length_c                    23.96506252830428 
_cell_angle_alpha                 89.97132601782567 
_cell_angle_beta                  90.93982864169095 
_cell_angle_gamma                 89.68794062708209 
loop_ 
_atom_site_label 
_atom_site_type_symbol 
_atom_site_fract_x 
_atom_site_fract_y 
_atom_site_fract_z 
_atom_site_charge 
O1          O  0.40507471  0.46616388  0.94099247    -0.80700
O2          O  0.04446240  0.04968263  0.98909265    -0.65400
O3          O  0.48552830  0.48649682  0.94163740    -1.12000
C4          C  0.00155281  0.45868756  0.13315118     1.06200
O5          O  0.08897188  0.02428755  0.03905606    -0.78600
O6          O  0.07998639  0.47057123  0.05608343    -0.66200
Ni7        Ni  0.43886583  0.48786330  0.89244264     1.34900
C8          C  0.06865467  0.45120732  0.02388033     0.84900
O9          O  0.01525898  0.03412310  0.89029662    -0.79100
O10         O  0.46842786  0.01035751  0.83991652    -0.89400
C11         C  0.08102153  0.04437362  0.00655758     0.84500
O12         O  0.41348804  0.01997993  0.92202406    -0.67600
O13         O  0.02576865  0.47936639  0.13846837    -0.86900
C14         C  0.42538775  0.03965710  0.95312259     0.85300
C15         C  0.49567442  0.02931672  0.84468422     1.06900
H16         H  0.98711818  0.01412503  0.05721465     0.38700
O17         O  0.00787854  0.00367924  0.03754239    -1.09600
O18         O  0.03249543  0.44950593  0.00166608    -0.66200
Ni19       Ni  0.48200019  0.47037309  0.01453712     1.26300
O20         O  0.46197013  0.04123492  0.97452960    -0.66400
O21         O  0.48121999  0.45386591  0.08802618    -0.78700
C22         C  0.41376891  0.44583346  0.97264937     0.84700
O23         O  0.45066855  0.44013267  0.98800803    -0.65900
Ni24       Ni  0.05470955  0.00234480  0.08656420     1.27400
Ni25       Ni  0.01229208  0.01930302  0.96416722     1.26100
H26         H  0.50600118  0.47607221  0.92139537     0.39300
C27         C  0.50660870  0.10336450  0.60809687     0.45700
H28         H  0.00942632  0.08072612  0.60246263    -0.03400
C29         C  0.50240736  0.15649405  0.61992786     0.45700
H30         H  0.49996419  0.17927503  0.62281376    -0.03400
C31         C  0.51093219  0.11263997  0.66999489    -0.17100
C32         C  0.04029975  0.11911003  0.57698259    -0.16800
C33         C  0.46472851  0.11558192  0.58741035    -0.17200
C34         C  0.00869329  0.14128143  0.67659919    -0.17200
C35         C  0.03814163  0.14696802  0.58310555    -0.16700
C36         C  0.46304457  0.14376021  0.59370510    -0.17100
O37         O  0.07879130  0.19989898  0.07560301    -0.80700
O38         O  0.46373631  0.30048119  0.02598187    -0.65400
O39         O  0.00476020  0.23007042  0.06957730    -1.12000
C40         C  0.50912022  0.21341101  0.87259835     1.06200
O41         O  0.42541532  0.28323586  0.95745043    -0.78600
O42         O  0.42726268  0.23104339  0.92732890    -0.66200
Ni43       Ni  0.04763675  0.22463610  0.12324880     1.34900
C44         C  0.42462431  0.21114675  0.96150229     0.84900
O45         O  0.47704924  0.27726506  0.12539137    -0.79100
O46         O  0.02097069  0.24997335  0.17450877    -0.89400
C47         C  0.42966211  0.29957570  0.99863918     0.84500
O48         O  0.08256552  0.25346317  0.09916332    -0.67600
O49         O  0.49576558  0.23805853  0.86520859    -0.86900
C50         C  0.07622335  0.27650859  0.07543646     0.85300
C51         C  0.99540753  0.27032821  0.17100371     1.06900
H52         H  0.52498601  0.26197170  0.96491117     0.38700
O53         O  0.49900247  0.25379968  0.97547555    -1.09600
O54         O  0.45451627  0.20421419  0.99453205    -0.66200
Ni55       Ni  0.01190509  0.21678727  0.99528104     1.26300
O56         O  0.04113843  0.28368790  0.05436320    -0.66400
O57         O  0.01667793  0.20324726  0.92060649    -0.78700
C58         C  0.06880979  0.18289943  0.03697889     0.84700
O59         O  0.03144601  0.18177285  0.01946905    -0.65900
Ni60       Ni  0.46291563  0.26095473  0.91415185     1.27400
Ni61       Ni  0.48701699  0.26613958  0.04975289     1.26100
H62         H  0.98091953  0.22095388  0.08490010     0.39300
C63         C  0.50289222  0.40214502  0.38508512     0.45700
H64         H  0.00293466  0.42476352  0.37807255    -0.03400
C65         C  0.50002540  0.34934843  0.40191737     0.45700
H66         H  0.49874434  0.32684205  0.41042756    -0.03400
C67         C  0.50021066  0.38530350  0.32956789    -0.17100
C68         C  0.04161023  0.39128132  0.41738025    -0.16800
C69         C  0.46587471  0.39264074  0.41943136    -0.17200
C70         C  0.99623614  0.35685559  0.33934774    -0.17200
C71         C  0.04053425  0.36300395  0.42345746    -0.16700
C72         C  0.46451850  0.36496404  0.42902137    -0.17100
O73         O  0.33528770  0.47136490  0.53828592    -0.80700
O74         O  0.21272514  0.06537596  0.49275715    -0.65400
O75         O  0.25663122  0.49547092  0.53239630    -1.12000
C76         C  0.24718490  0.47509346  0.33995597     1.06200
O77         O  0.16660349  0.04791277  0.43272146    -0.78600
O78         O  0.16364871  0.49307308  0.42845914    -0.66200
Ni79       Ni  0.29936660  0.49084835  0.58727239     1.34900
C80         C  0.17541867  0.46986161  0.44751441     0.84900
O81         O  0.23172371  0.04256393  0.59213654    -0.79100
O82         O  0.26767607  0.01048825  0.64118495    -0.89400
C83         C  0.17708874  0.06562664  0.46936973     0.84500
O84         O  0.33001753  0.02337416  0.57229735    -0.67600
O85         O  0.21667824  0.49202840  0.34062715    -0.86900
C86         C  0.32401302  0.04443054  0.54178877     0.85300
C87         C  0.24642328  0.03269420  0.63801441     1.06900
H88         H  0.26362791  0.02981146  0.42128991     0.38700
O89         O  0.24227974  0.01904944  0.43873288    -1.09600
O90         O  0.21344474  0.46401071  0.45770369    -0.66200
Ni91       Ni  0.26539598  0.48396323  0.45703596     1.26300
O92         O  0.29069518  0.04866482  0.51328147    -0.66400
O93         O  0.27302057  0.47288384  0.38061654    -0.78700
C94         C  0.32740697  0.45278324  0.50257030     0.84700
O95         O  0.29203711  0.45074222  0.47924175    -0.65900
Ni96       Ni  0.19469731  0.02012457  0.38979785     1.27400
Ni97       Ni  0.23649682  0.03116421  0.51483888     1.26100
H98         H  0.23330378  0.48536497  0.54657824     0.39300
C99         C  0.25179233  0.34660913  0.11584349     0.45700
H100        H  0.25529003  0.32387929  0.12000377    -0.03400
C101        C  0.24391657  0.39952941  0.10395910     0.45700
H102        H  0.24127979  0.42226586  0.09957292    -0.03400
C103        C  0.25304923  0.36216964  0.17206423    -0.17100
C104        C  0.28605387  0.35932890  0.08152296    -0.16800
C105        C  0.21077777  0.35528628  0.08675798    -0.17200
C106        C  0.24828217  0.39052643  0.16576615    -0.17200
C107        C  0.28178746  0.38718146  0.07489761    -0.16700
C108        C  0.20670199  0.38345755  0.07925634    -0.17100
O109        O  0.17048096  0.21823060  0.43756472    -0.80700
O110        O  0.28830198  0.31147806  0.50671635    -0.65400
O111        O  0.24958365  0.24230882  0.45472640    -1.12000
C112        C  0.25107571  0.21554038  0.64133834     1.06200
O113        O  0.33313322  0.29278786  0.56670722    -0.78600
O114        O  0.33513537  0.23948058  0.55174377    -0.66200
Ni115      Ni  0.21024129  0.23920086  0.39460146     1.34900
C116        C  0.32539776  0.21507909  0.53930993     0.84900
O117        O  0.27307101  0.29243681  0.40524050    -0.79100
O118        O  0.24508649  0.26120244  0.34656426    -0.89400
C119        C  0.32378443  0.31108975  0.53032979     0.84500
O120        O  0.17890925  0.27119794  0.41107095    -0.67600
O121        O  0.28393754  0.23032667  0.64289163    -0.86900
C122        C  0.18111967  0.29026712  0.44718717     0.85300
C123        C  0.26260208  0.28438672  0.35644914     1.06900
H124        H  0.23716829  0.27356620  0.57064242     0.38700
O125        O  0.25881467  0.26329504  0.55232174    -1.09600
O126        O  0.28794252  0.20774225  0.53098207    -0.66200
Ni127      Ni  0.23654725  0.22908912  0.52739350     1.26300
O128        O  0.21177786  0.29337898  0.48081199    -0.66400
O129        O  0.22464793  0.21707135  0.60148850    -0.78700
C130        C  0.17546346  0.20051396  0.47639398     0.84700
O131        O  0.21073353  0.19696159  0.49924413    -0.65900
Ni132      Ni  0.30553324  0.26203517  0.60167378     1.27400
Ni133      Ni  0.26700572  0.27772077  0.47902774     1.26100
H134        H  0.27413450  0.23275313  0.44232664     0.39300
C135        C  0.24109643  0.15018148  0.88184197     0.45700
H136        H  0.23429337  0.17255745  0.88028112    -0.03400
C137        C  0.25342141  0.09729949  0.88689019     0.45700
H138        H  0.25787910  0.07457655  0.88886716    -0.03400
C139        C  0.24195724  0.13610928  0.82350235    -0.17100
C140        C  0.28320632  0.14229708  0.91024005    -0.16800
C141        C  0.20786305  0.13496697  0.91516878    -0.17200
C142        C  0.24787944  0.10786116  0.82674100    -0.17200
C143        C  0.28986357  0.11401242  0.91219805    -0.16700
C144        C  0.21480316  0.10712643  0.91790350    -0.17100
C145        C  0.24562438  0.19399705  0.68513245     0.00000
C146        C  0.27669391  0.17391742  0.69183621    -0.11800
C147        C  0.27511194  0.15393146  0.73413878     0.02300
C148        C  0.24101140  0.15308504  0.77077079     0.00000
C149        C  0.20885163  0.17261958  0.76245853    -0.11800
C150        C  0.21094668  0.19292031  0.72019699     0.02200
H151        H  0.30320171  0.17431759  0.66465496     0.15100
H152        H  0.18293149  0.17283135  0.79074017     0.15100
C153        C  0.17878328  0.21364188  0.71595856     0.36800
C154        C  0.31143521  0.13683401  0.74150443     0.36700
N155        N  0.15316834  0.23037809  0.71215539    -0.43600
N156        N  0.34183707  0.12413264  0.74484509    -0.43500
C157        C  0.25993449  0.34567926  0.22474193     0.00000
C158        C  0.29006231  0.32429334  0.22418842    -0.11800
C159        C  0.29212366  0.30390201  0.26614103     0.02300
C160        C  0.26476997  0.30520794  0.31111835     0.00000
C161        C  0.23663680  0.32727465  0.31355478    -0.11800
C162        C  0.23302271  0.34679890  0.27063273     0.02200
H163        H  0.31099893  0.32272571  0.18940217     0.15100
H164        H  0.21604476  0.32866915  0.34870253     0.15100
C165        C  0.19866458  0.36566855  0.27368329     0.36800
C166        C  0.32208188  0.28184046  0.26184036     0.36700
N167        N  0.17028056  0.37999520  0.27924038    -0.43600
N168        N  0.34613288  0.26415591  0.25810829    -0.43500
C169        C  0.24836697  0.41204284  0.21097625     0.00000
C170        C  0.28599403  0.42073422  0.23585649    -0.11800
C171        C  0.28701285  0.44303425  0.27396060     0.02300
C172        C  0.24971503  0.45541114  0.29174578     0.00000
C173        C  0.21270890  0.44770120  0.26448527    -0.11800
C174        C  0.21212797  0.42746255  0.22276025     0.02200
H175        H  0.31478802  0.41126956  0.22302509     0.15100
H176        H  0.18374450  0.45756391  0.27575558     0.15100
C177        C  0.17314548  0.42287938  0.19400002     0.36800
C178        C  0.32617403  0.45577652  0.28749008     0.36700
N179        N  0.14084902  0.42002795  0.17318501    -0.43600
N180        N  0.35695981  0.46717064  0.29688246    -0.43500
C181        C  0.24708456  0.08797327  0.77881316     0.00000
C182        C  0.20935176  0.08256009  0.75025514    -0.11800
C183        C  0.20729273  0.06259010  0.70728848     0.02300
C184        C  0.24369792  0.04938224  0.68973485     0.00000
C185        C  0.28033333  0.05328966  0.72072340    -0.11800
C186        C  0.28188065  0.07130736  0.76611318     0.02200
H187        H  0.18128061  0.09287580  0.76349216     0.15100
H188        H  0.30829798  0.04228032  0.70904731     0.15100
C189        C  0.32000456  0.07148176  0.79817598     0.36800
C190        C  0.16770191  0.05292319  0.68673406     0.36700
N191        N  0.35174921  0.07000292  0.82112033    -0.43600
N192        N  0.13636619  0.04412168  0.67082452    -0.43500
C193        C  0.07803589  0.34574505  0.43186130     0.00000
C194        C  0.09173988  0.33801655  0.48558572    -0.11800
C195        C  0.12638883  0.32051730  0.49269679     0.02300
C196        C  0.14703083  0.31052189  0.44528552     0.00000
C197        C  0.13387206  0.31913774  0.39208582    -0.11800
C198        C  0.10082892  0.33721394  0.38511941     0.02200
H199        H  0.07563873  0.34570698  0.52168792     0.15100
H200        H  0.14983488  0.31189369  0.35536214     0.15100
C201        C  0.09344070  0.34859638  0.33000791     0.36800
C202        C  0.13877940  0.31204733  0.54826277     0.36700
N203        N  0.08755630  0.35734750  0.28562073    -0.43600
N204        N  0.14866361  0.30518644  0.59281531    -0.43500
C205        C  0.42876506  0.35133641  0.45675947     0.00000
C206        C  0.38886296  0.35492090  0.43358687    -0.11800
C207        C  0.35363201  0.34479873  0.45984342     0.02300
C208        C  0.35784582  0.32904243  0.50940013     0.00000
C209        C  0.39794597  0.32608321  0.53336036    -0.11800
C210        C  0.43305722  0.33704127  0.50764420     0.02200
H211        H  0.38509737  0.36589114  0.39456774     0.15100
H212        H  0.40229638  0.31430493  0.57150015     0.15100
C213        C  0.47299070  0.33309300  0.53440264     0.36800
C214        C  0.31390283  0.35094966  0.43417326     0.36700
N215        N  0.50458733  0.32949849  0.55684155    -0.43600
N216        N  0.28218357  0.35621282  0.41349280    -0.43500
C217        C  0.43315311  0.41113380  0.43946669     0.00000
C218        C  0.42907167  0.41420547  0.49723459    -0.11800
C219        C  0.39422861  0.42710861  0.51911260     0.02300
C220        C  0.36210824  0.43614056  0.48272375     0.00000
C221        C  0.36585573  0.43246234  0.42511229    -0.11800
C222        C  0.40143265  0.42052507  0.40315764     0.02200
H223        H  0.45292567  0.40601085  0.52520054     0.15100
H224        H  0.34121219  0.43939257  0.39720450     0.15100
C225        C  0.40299185  0.41609135  0.34379635     0.36800
C226        C  0.39171376  0.43014881  0.57891855     0.36700
N227        N  0.40308860  0.41265826  0.29607228    -0.43600
N228        N  0.38976878  0.43269087  0.62681925    -0.43500
C229        C  0.14346308  0.44808039  0.45304890     0.00000
C230        C  0.10256824  0.45544504  0.46594187    -0.11800
C231        C  0.06965245  0.43675496  0.45889399     0.02300
C232        C  0.07688199  0.40998156  0.43675376     0.00000
C233        C  0.11871208  0.40238313  0.42833763    -0.11800
C234        C  0.15152032  0.42077560  0.43640403     0.02200
H235        H  0.09605285  0.47629281  0.47987537     0.15100
H236        H  0.12674487  0.38330070  0.40921522     0.15100
C237        C  0.19243083  0.41195171  0.41990804     0.36800
C238        C  0.02912590  0.44629484  0.47477120     0.36700
N239        N  0.22518877  0.40513667  0.40631196    -0.43600
N240        N  0.99754082  0.45527869  0.48830053    -0.43500
C241        C  0.10332612  0.16896326  0.00595156     0.00000
C242        C  0.14423158  0.17804053  0.01655974    -0.11800
C243        C  0.17793105  0.16852216  0.98560322     0.02300
C244        C  0.17181050  0.14897236  0.94278924     0.00000
C245        C  0.13099788  0.14010259  0.93116419    -0.11800
C246        C  0.09706364  0.14959401  0.96234828     0.02200
H247        H  0.15025141  0.19309254  0.04910418     0.15100
H248        H  0.12577095  0.12499241  0.89851635     0.15100
C249        C  0.05668512  0.13830613  0.94953860     0.36800
C250        C  0.21863295  0.17847890  0.00091033     0.36700
N251        N  0.02454362  0.12891796  0.93913931    -0.43600
N252        N  0.25069620  0.18694879  0.01458977    -0.43500
C253        C  0.31350151  0.16345028  0.93171426     0.00000
C254        C  0.33768435  0.15804232  0.98035233    -0.11800
C255        C  0.37375971  0.17331703  0.99287581     0.02300
C256        C  0.38460036  0.19569458  0.95841703     0.00000
C257        C  0.35640673  0.20357122  0.91579784    -0.11800
C258        C  0.32203263  0.18780052  0.90155945     0.02200
H259        H  0.32996932  0.14071353  0.00671644     0.15100
H260        H  0.36234813  0.22153456  0.89019744     0.15100
C261        C  0.29901513  0.19706703  0.85300622     0.36800
C262        C  0.39923713  0.16502965  0.04002896     0.36700
N263        N  0.28188547  0.20637555  0.81458006    -0.43600
N264        N  0.41951288  0.15824736  0.07795293    -0.43500
C265        C  0.11142151  0.29614009  0.07585743     0.00000
C266        C  0.12012766  0.31229991  0.02868743    -0.11800
C267        C  0.15389237  0.33067873  0.02928574     0.02300
C268        C  0.17742080  0.33443732  0.07901687     0.00000
C269        C  0.16875971  0.31812144  0.12542351    -0.11800
C270        C  0.13724961  0.29870863  0.12391671     0.02200
H271        H  0.10134306  0.31001469  0.99105029     0.15100
H272        H  0.18667134  0.32063612  0.16378496     0.15100
C273        C  0.13279257  0.28179011  0.17298167     0.36800
C274        C  0.16401724  0.34517777  0.97874678     0.36700
N275        N  0.13086846  0.26808528  0.21233595    -0.43600
N276        N  0.17221167  0.35696017  0.93842397    -0.43500
C277        C  0.39260079  0.31555796  0.01809788     0.00000
C278        C  0.39643297  0.33248752  0.06573899    -0.11800
C279        C  0.36181146  0.34610384  0.08778970     0.02300
C280        C  0.32249838  0.34321380  0.06227495     0.00000
C281        C  0.31793862  0.32569758  0.01644878    -0.11800
C282        C  0.35229220  0.31224265  0.99360959     0.02200
H283        H  0.42636500  0.33485823  0.08642521     0.15100
H284        H  0.28740622  0.32308322  0.99751772     0.15100
C285        C  0.34438783  0.29510856  0.94532351     0.36800
C286        C  0.36662419  0.36250019  0.13757713     0.36700
N287        N  0.33761244  0.28144249  0.90667929    -0.43600
N288        N  0.36957937  0.37602473  0.17714172    -0.43500
C289        C  0.98967156  0.28854594  0.22105686     0.00000
C290        C  0.45741814  0.30839256  0.22203329    -0.11800
C291        C  0.45679781  0.32921662  0.26325467     0.02300
C292        C  0.99197763  0.33339692  0.29807884     0.00000
C293        C  0.01927196  0.31077946  0.30347762    -0.11800
C294        C  0.01826344  0.28850817  0.26646723     0.02200
H295        H  0.43194057  0.30703947  0.19207338     0.15100
H296        H  0.04084781  0.30970331  0.33817402     0.15100
C297        C  0.04595346  0.26566024  0.27829560     0.36800
C298        C  0.41761298  0.34206660  0.27598900     0.36700
N299        N  0.06767131  0.24727903  0.28919884    -0.43600
N300        N  0.38577775  0.35152893  0.28708160    -0.43500
C301        C  0.06955728  0.16536974  0.55803286     0.00000
C302        C  0.06753317  0.17041147  0.50025397    -0.11800
C303        C  0.10156791  0.18152931  0.47207021     0.02300
C304        C  0.13875803  0.18727446  0.50180219     0.00000
C305        C  0.14016511  0.18239258  0.55949317    -0.11800
C306        C  0.10609365  0.17220917  0.58773426     0.02200
H307        H  0.03997348  0.16444819  0.47675641     0.15100
H308        H  0.16810270  0.18654722  0.58327906     0.15100
C309        C  0.11075135  0.16820304  0.64700336     0.36800
C310        C  0.09839882  0.18513533  0.41239770     0.36700
N311        N  0.11608119  0.16550838  0.69453349    -0.43600
N312        N  0.09591757  0.18789381  0.36449034    -0.43500
C313        C  0.42652265  0.16109461  0.57853534     0.00000
C314        C  0.41150980  0.16183667  0.52289611    -0.11800
C315        C  0.37717878  0.17853328  0.50792047     0.02300
C316        C  0.35795331  0.19447993  0.54918667     0.00000
C317        C  0.37261787  0.19327182  0.60411622    -0.11800
C318        C  0.40601560  0.17677779  0.61928152     0.02200
H319        H  0.42696037  0.14974741  0.49127023     0.15100
H320        H  0.35784347  0.20572144  0.63587765     0.15100
C321        C  0.41600632  0.17601829  0.67788780     0.36800
C322        C  0.36350642  0.18000888  0.45042823     0.36700
N323        N  0.42014108  0.17717385  0.72578498    -0.43600
N324        N  0.35259688  0.18130613  0.40425263    -0.43500
C325        C  0.42793795  0.09821035  0.57020475     0.00000
C326        C  0.38884444  0.10398264  0.59326086    -0.11800
C327        C  0.35363669  0.08846405  0.57913174     0.02300
C328        C  0.35719589  0.06540761  0.54382225     0.00000
C329        C  0.39598902  0.05920436  0.52115050    -0.11800
C330        C  0.43095312  0.07559104  0.53301354     0.02200
H331        H  0.38573420  0.12025530  0.62382527     0.15100
H332        H  0.39916937  0.04106980  0.49502719     0.15100
C333        C  0.46923471  0.06832891  0.50635284     0.36800
C334        C  0.31438473  0.09591216  0.60331879     0.36700
N335        N  0.49937095  0.06171772  0.48435240    -0.43600
N336        N  0.28283362  0.10210714  0.62210141    -0.43500
C337        C  0.07534964  0.10561233  0.54825300     0.00000
C338        C  0.07369287  0.10197876  0.49023483    -0.11800
C339        C  0.10760878  0.09066249  0.46202508     0.02300
C340        C  0.14435268  0.08364145  0.49216245     0.00000
C341        C  0.14666231  0.08937440  0.54932655    -0.11800
C342        C  0.11255793  0.09979025  0.57731368     0.02200
H343        H  0.04588960  0.10794777  0.46707746     0.15100
H344        H  0.17448534  0.08420435  0.57324974     0.15100
C345        C  0.11701132  0.10406848  0.63620151     0.36800
C346        C  0.10394946  0.08668221  0.40245144     0.36700
N347        N  0.12257411  0.10704555  0.68346471    -0.43600
N348        N  0.10091015  0.08353214  0.35469220    -0.43500
C349        C  0.51069643  0.15818155  0.72993057     0.00000
C350        C  0.03016736  0.18426491  0.72804818    -0.11800
C351        C  0.03112405  0.20225916  0.77386436     0.02300
C352        C  0.51256899  0.19452009  0.82397314     0.00000
C353        C  0.49283397  0.16873986  0.82662075    -0.11800
C354        C  0.49058750  0.15104605  0.78014795     0.02200
H355        H  0.04421020  0.19127255  0.69004735     0.15100
H356        H  0.47648144  0.16321717  0.86419734     0.15100
C357        C  0.46249234  0.12807323  0.78326287     0.36800
C358        C  0.05131852  0.22859968  0.76838594     0.36700
N359        N  0.43958741  0.10983617  0.78592699    -0.43600
N360        N  0.06735486  0.24977690  0.76413591    -0.43500
C361        C  0.32790620  0.09909213  0.93437524     0.00000
C362        C  0.32174673  0.07534801  0.96680552    -0.11800
C363        C  0.35417818  0.05666564  0.97806871     0.02300
C364        C  0.39474442  0.06230252  0.96003371     0.00000
C365        C  0.40202233  0.08737434  0.93265739    -0.11800
C366        C  0.36904113  0.10529802  0.91817744     0.02200
H367        H  0.29068082  0.07028454  0.98005102     0.15100
H368        H  0.43269689  0.09138934  0.91660651     0.15100
C369        C  0.37780255  0.12766135  0.88055810     0.36800
C370        C  0.34416328  0.03064329  0.00371955     0.36700
N371        N  0.38489468  0.14579773  0.85086492    -0.43600
N372        N  0.33556632  0.50970999  0.02349950    -0.43500
C373        C  0.11633779  0.05960771  0.98441374     0.00000
C374        C  0.13980244  0.07636651  0.02038447    -0.11800
C375        C  0.17475849  0.09016603  0.00097553     0.02300
C376        C  0.18559891  0.08786826  0.94430013     0.00000
C377        C  0.16415233  0.06940689  0.90971182    -0.11800
C378        C  0.13021635  0.05483321  0.92966149     0.02200
H379        H  0.13084459  0.07860712  0.06358230     0.15100
H380        H  0.17328026  0.06690615  0.86662989     0.15100
C381        C  0.11205116  0.03390097  0.89428903     0.36800
C382        C  0.19904147  0.10643627  0.03977266     0.36700
N383        N  0.09869508  0.01678688  0.86566352    -0.43600
N384        N  0.21849965  0.11933896  0.07114117    -0.43500
C385        C  0.50359634  0.04804130  0.79619102     0.00000
C386        C  0.03306420  0.06926116  0.80264646    -0.11800
C387        C  0.03740923  0.09022000  0.76272429     0.02300
C388        C  0.51163007  0.09050103  0.71422022     0.00000
C389        C  0.48360140  0.06852224  0.70668976    -0.11800
C390        C  0.47940177  0.04756432  0.74635350     0.02200
H391        H  0.05193360  0.07029901  0.84042996     0.15100
H392        H  0.46296843  0.06829519  0.67052019     0.15100
C393        C  0.44852287  0.02671080  0.73505000     0.36800
C394        C  0.06683367  0.11164595  0.77563094     0.36700
N395        N  0.42370437  0.01010079  0.72570202    -0.43600
N396        N  0.09034620  0.12856380  0.78834981    -0.43500
C397        C  0.31236441  0.40406261  0.04560386     0.00000
C398        C  0.33335295  0.42440496  0.07591078    -0.11800
C399        C  0.36623727  0.43851055  0.05222576     0.02300
C400        C  0.37930846  0.43141198  0.99813300     0.00000
C401        C  0.35651705  0.41246074  0.96636960    -0.11800
C402        C  0.32258025  0.39909032  0.98941642     0.02200
H403        H  0.32459814  0.42885418  0.11849387     0.15100
H404        H  0.36488187  0.40844203  0.92346457     0.15100
C405        C  0.29709357  0.38190889  0.95376758     0.36800
C406        C  0.38560878  0.46032188  0.08413975     0.36700
N407        N  0.27635009  0.36852854  0.92481763    -0.43600
N408        N  0.40029215  0.97796797  0.11013733    -0.43500
C409        C  0.09947742  0.42900485  0.01743613     0.00000
C410        C  0.13926655  0.43648438  0.00070627    -0.11800
C411        C  0.17421413  0.42096080  0.01693414     0.02300
C412        C  0.16990857  0.39801902  0.05320688     0.00000
C413        C  0.12951129  0.38978436  0.06673648    -0.11800
C414        C  0.09461464  0.40419933  0.04692560     0.02200
H415        H  0.14328828  0.45562163  0.97794037     0.15100
H416        H  0.12478284  0.37295219  0.09551776     0.15100
C417        C  0.05425847  0.39381361  0.06040476     0.36800
C418        C  0.21371505  0.43000691  0.99655205     0.36700
N419        N  0.02234929  0.38441834  0.07030871    -0.43600
N420        N  0.24454217  0.43827815  0.97923287    -0.43500
C421        C  0.00399311  0.40082891  0.27438707     0.00000
C422        C  0.47663371  0.39658936  0.22876094    -0.11800
C423        C  0.47514488  0.41457140  0.18224022     0.02300
C424        C  0.99959643  0.43877705  0.18151024     0.00000
C425        C  0.02814626  0.44223642  0.22560106    -0.11800
C426        C  0.03202240  0.42317185  0.26925780     0.02200
H427        H  0.45561898  0.37966601  0.22885572     0.15100
H428        H  0.04991374  0.45921341  0.22451718     0.15100
C429        C  0.06913288  0.42586693  0.30269765     0.36800
C430        C  0.45059344  0.40644099  0.13442470     0.36700
N431        N  0.10095566  0.42967806  0.32407277    -0.43600
N432        N  0.43276329  0.39938794  0.09473819    -0.43500
O433        O  0.40507476  0.96616391  0.94099257    -0.80700
O434        O  0.04446243  0.54968261  0.98909252    -0.65400
O435        O  0.48552834  0.98649681  0.94163745    -1.12000
C436        C  0.00155282  0.95868754  0.13315121     1.06200
O437        O  0.08897189  0.52428757  0.03905607    -0.78600
O438        O  0.07998638  0.97057121  0.05608344    -0.66200
Ni439      Ni  0.43886588  0.98786331  0.89244270     1.34900
C440        C  0.06865464  0.95120729  0.02388039     0.84900
O441        O  0.01525897  0.53412307  0.89029654    -0.79100
O442        O  0.46842779  0.51035752  0.83991648    -0.89400
C443        C  0.08102157  0.54437360  0.00655749     0.84500
O444        O  0.41348796  0.51997991  0.92202402    -0.67600
O445        O  0.02576868  0.97936636  0.13846841    -0.86900
C446        C  0.42538767  0.53965708  0.95312253     0.85300
C447        C  0.49567437  0.52931673  0.84468416     1.06900
H448        H  0.98711818  0.51412502  0.05721457     0.38700
O449        O  0.00787854  0.50367923  0.03754233    -1.09600
O450        O  0.03249541  0.94950591  0.00166612    -0.66200
Ni451      Ni  0.48200025  0.97037307  0.01453715     1.26300
O452        O  0.46197005  0.54123492  0.97452952    -0.66400
O453        O  0.48122003  0.95386586  0.08802621    -0.78700
C454        C  0.41376897  0.94583347  0.97264940     0.84700
O455        O  0.45066862  0.94013266  0.98800803    -0.65900
Ni456      Ni  0.05470953  0.50234482  0.08656419     1.27400
Ni457      Ni  0.01229208  0.51930299  0.96416714     1.26100
H458        H  0.50600118  0.97607221  0.92139543     0.39300
C459        C  0.50660873  0.60336448  0.60809675     0.45700
H460        H  0.00942633  0.58072614  0.60246248    -0.03400
C461        C  0.50240739  0.65649403  0.61992781     0.45700
H462        H  0.49996421  0.67927500  0.62281373    -0.03400
C463        C  0.51093222  0.61263993  0.66999478    -0.17100
C464        C  0.04029976  0.61911007  0.57698252    -0.16800
C465        C  0.46472855  0.61558190  0.58741026    -0.17200
C466        C  0.00869332  0.64128142  0.67659915    -0.17200
C467        C  0.03814164  0.64696806  0.58310552    -0.16700
C468        C  0.46304460  0.64376019  0.59370503    -0.17100
O469        O  0.07879134  0.69989888  0.07560307    -0.80700
O470        O  0.46373636  0.80048113  0.02598187    -0.65400
O471        O  0.00476026  0.73007035  0.06957735    -1.12000
C472        C  0.50912031  0.71341095  0.87259835     1.06200
O473        O  0.42541540  0.78323582  0.95745040    -0.78600
O474        O  0.42726270  0.73104338  0.92732897    -0.66200
Ni475      Ni  0.04763687  0.72463605  0.12324881     1.34900
C476        C  0.42462436  0.71114671  0.96150228     0.84900
O477        O  0.47704928  0.77726500  0.12539136    -0.79100
O478        O  0.02097090  0.74997338  0.17450874    -0.89400
C479        C  0.42966219  0.79957567  0.99863913     0.84500
O480        O  0.08256565  0.75346308  0.09916314    -0.67600
O481        O  0.49576557  0.73805845  0.86520859    -0.86900
C482        C  0.07622340  0.77650853  0.07543642     0.85300
C483        C  0.99540764  0.77032818  0.17100372     1.06900
H484        H  0.52498606  0.76197163  0.96491119     0.38700
O485        O  0.49900251  0.75379961  0.97547556    -1.09600
O486        O  0.45451634  0.70421409  0.99453194    -0.66200
Ni487      Ni  0.01190513  0.71678721  0.99528108     1.26300
O488        O  0.04113843  0.78368785  0.05436331    -0.66400
O489        O  0.01667795  0.70324719  0.92060653    -0.78700
C490        C  0.06880983  0.68289933  0.03697894     0.84700
O491        O  0.03144605  0.68177278  0.01946906    -0.65900
Ni492      Ni  0.46291569  0.76095467  0.91415186     1.27400
Ni493      Ni  0.48701701  0.76613951  0.04975289     1.26100
H494        H  0.98091960  0.72095379  0.08490020     0.39300
C495        C  0.50289215  0.90214497  0.38508514     0.45700
H496        H  0.00293461  0.92476349  0.37807252    -0.03400
C497        C  0.50002534  0.84934840  0.40191746     0.45700
H498        H  0.49874430  0.82684202  0.41042769    -0.03400
C499        C  0.50021057  0.88530343  0.32956793    -0.17100
C500        C  0.04161018  0.89128130  0.41738026    -0.16800
C501        C  0.46587467  0.89264071  0.41943144    -0.17200
C502        C  0.99623604  0.85685555  0.33934782    -0.17200
C503        C  0.04053421  0.86300393  0.42345748    -0.16700
C504        C  0.46451847  0.86496401  0.42902149    -0.17100
O505        O  0.33528766  0.97136481  0.53828602    -0.80700
O506        O  0.21272517  0.56537603  0.49275709    -0.65400
O507        O  0.25663117  0.99547084  0.53239640    -1.12000
C508        C  0.24718489  0.97509340  0.33995602     1.06200
O509        O  0.16660351  0.54791282  0.43272144    -0.78600
O510        O  0.16364870  0.99307303  0.42845909    -0.66200
Ni511      Ni  0.29936659  0.99084830  0.58727246     1.34900
C512        C  0.17541862  0.96986157  0.44751444     0.84900
O513        O  0.23172377  0.54256399  0.59213646    -0.79100
O514        O  0.26767603  0.51048826  0.64118490    -0.89400
C515        C  0.17708877  0.56562670  0.46936968     0.84500
O516        O  0.33001751  0.52337424  0.57229741    -0.67600
O517        O  0.21667828  0.99202837  0.34062714    -0.86900
C518        C  0.32401303  0.54443060  0.54178877     0.85300
C519        C  0.24642329  0.53269423  0.63801435     1.06900
H520        H  0.26362796  0.52981156  0.42128978     0.38700
O521        O  0.24227978  0.51904953  0.43873278    -1.09600
O522        O  0.21344468  0.96401066  0.45770379    -0.66200
Ni523      Ni  0.26539593  0.98396315  0.45703606     1.26300
O524        O  0.29069522  0.54866487  0.51328139    -0.66400
O525        O  0.27302051  0.97288374  0.38061664    -0.78700
C526        C  0.32740691  0.95278314  0.50257044     0.84700
O527        O  0.29203705  0.95074213  0.47924187    -0.65900
Ni528      Ni  0.19469730  0.52012460  0.38979783     1.27400
Ni529      Ni  0.23649685  0.53116428  0.51483881     1.26100
H530        H  0.23330372  0.98536489  0.54657836     0.39300
C531        C  0.25179236  0.84660910  0.11584337     0.45700
H532        H  0.25529004  0.82387926  0.12000363    -0.03400
C533        C  0.24391664  0.89952939  0.10395899     0.45700
H534        H  0.24127987  0.92226584  0.09957282    -0.03400
C535        C  0.25304929  0.86216961  0.17206411    -0.17100
C536        C  0.28605390  0.85932885  0.08152280    -0.16800
C537        C  0.21077779  0.85528626  0.08675790    -0.17200
C538        C  0.24828225  0.89052641  0.16576605    -0.17200
C539        C  0.28178750  0.88718142  0.07489746    -0.16700
C540        C  0.20670203  0.88345753  0.07925629    -0.17100
O541        O  0.17048100  0.71823056  0.43756463    -0.80700
O542        O  0.28830189  0.81147807  0.50671618    -0.65400
O543        O  0.24958372  0.74230877  0.45472626    -1.12000
C544        C  0.25107566  0.71554036  0.64133816     1.06200
O545        O  0.33313311  0.79278790  0.56670713    -0.78600
O546        O  0.33513537  0.73948058  0.55174358    -0.66200
Ni547      Ni  0.21024132  0.73920081  0.39460135     1.34900
C548        C  0.32539777  0.71507907  0.53930984     0.84900
O549        O  0.27307097  0.79243679  0.40524035    -0.79100
O550        O  0.24508650  0.76120240  0.34656414    -0.89400
C551        C  0.32378431  0.81108979  0.53032971     0.84500
O552        O  0.17890922  0.77119788  0.41107082    -0.67600
O553        O  0.28393754  0.73032660  0.64289140    -0.86900
C554        C  0.18111963  0.79026705  0.44718706     0.85300
C555        C  0.26260204  0.78438669  0.35644900     1.06900
H556        H  0.23716830  0.77356618  0.57064223     0.38700
O557        O  0.25881466  0.76329502  0.55232157    -1.09600
O558        O  0.28794252  0.70774222  0.53098206    -0.66200
Ni559      Ni  0.23654725  0.72908910  0.52739337     1.26300
O560        O  0.21177782  0.79337892  0.48081186    -0.66400
O561        O  0.22464784  0.71707139  0.60148838    -0.78700
C562        C  0.17546350  0.70051392  0.47639388     0.84700
O563        O  0.21073355  0.69696156  0.49924406    -0.65900
Ni564      Ni  0.30553320  0.76203515  0.60167362     1.27400
Ni565      Ni  0.26700570  0.77772075  0.47902758     1.26100
H566        H  0.27413461  0.73275307  0.44232651     0.39300
C567        C  0.24109645  0.65018149  0.88184192     0.45700
H568        H  0.23429336  0.67255746  0.88028108    -0.03400
C569        C  0.25342147  0.59729951  0.88689010     0.45700
H570        H  0.25787919  0.57457658  0.88886705    -0.03400
C571        C  0.24195727  0.63610930  0.82350228    -0.17100
C572        C  0.28320635  0.64229711  0.91023999    -0.16800
C573        C  0.20786310  0.63496697  0.91516873    -0.17200
C574        C  0.24787948  0.60786118  0.82674093    -0.17200
C575        C  0.28986362  0.61401246  0.91219797    -0.16700
C576        C  0.21480323  0.60712642  0.91790343    -0.17100
C577        C  0.24562432  0.69399701  0.68513225     0.00000
C578        C  0.27669386  0.67391738  0.69183602    -0.11800
C579        C  0.27511194  0.65393146  0.73413868     0.02300
C580        C  0.24101142  0.65308505  0.77077072     0.00000
C581        C  0.20885162  0.67261958  0.76245843    -0.11800
C582        C  0.21094665  0.69292028  0.72019684     0.02200
H583        H  0.30320165  0.67431754  0.66465474     0.15100
H584        H  0.18293151  0.67283136  0.79074010     0.15100
C585        C  0.17878325  0.71364186  0.71595846     0.36800
C586        C  0.31143525  0.63683406  0.74150441     0.36700
N587        N  0.15316829  0.73037805  0.71215536    -0.43600
N588        N  0.34183715  0.62413273  0.74484515    -0.43500
C589        C  0.25993450  0.84567922  0.22474180     0.00000
C590        C  0.29006226  0.82429326  0.22418827    -0.11800
C591        C  0.29212357  0.80390192  0.26614086     0.02300
C592        C  0.26476991  0.80520789  0.31111821     0.00000
C593        C  0.23663677  0.82727462  0.31355464    -0.11800
C594        C  0.23302271  0.84679888  0.27063259     0.02200
H595        H  0.31099885  0.82272560  0.18940199     0.15100
H596        H  0.21604474  0.82866914  0.34870239     0.15100
C597        C  0.19866458  0.86566853  0.27368308     0.36800
C598        C  0.32208166  0.78184031  0.26184012     0.36700
N599        N  0.17028055  0.87999519  0.27924005    -0.43600
N600        N  0.34613252  0.76415567  0.25810799    -0.43500
C601        C  0.24836701  0.91204281  0.21097617     0.00000
C602        C  0.28599405  0.92073416  0.23585655    -0.11800
C603        C  0.28701285  0.94303417  0.27396069     0.02300
C604        C  0.24971503  0.95541108  0.29174581     0.00000
C605        C  0.21270892  0.94770117  0.26448521    -0.11800
C606        C  0.21212802  0.92746256  0.22276011     0.02200
H607        H  0.31478805  0.91126947  0.22302523     0.15100
H608        H  0.18374452  0.95756389  0.27575549     0.15100
C609        C  0.17314556  0.92287944  0.19399980     0.36800
C610        C  0.32617402  0.95577645  0.28749017     0.36700
N611        N  0.14084910  0.92002807  0.17318476    -0.43600
N612        N  0.35695979  0.96717058  0.29688252    -0.43500
C613        C  0.24708459  0.58797330  0.77881309     0.00000
C614        C  0.20935178  0.58256010  0.75025512    -0.11800
C615        C  0.20729275  0.56259011  0.70728846     0.02300
C616        C  0.24369796  0.54938227  0.68973477     0.00000
C617        C  0.28033338  0.55328971  0.72072329    -0.11800
C618        C  0.28188069  0.57130740  0.76611308     0.02200
H619        H  0.18128062  0.59287579  0.76349218     0.15100
H620        H  0.30829803  0.54228039  0.70904717     0.15100
C621        C  0.32000459  0.57148180  0.79817589     0.36800
C622        C  0.16770194  0.55292313  0.68673416     0.36700
N623        N  0.35174924  0.57000295  0.82112025    -0.43600
N624        N  0.13636623  0.54412154  0.67082476    -0.43500
C625        C  0.07803585  0.84574502  0.43186129     0.00000
C626        C  0.09173976  0.83801641  0.48558570    -0.11800
C627        C  0.12638867  0.82051713  0.49269673     0.02300
C628        C  0.14703076  0.81052181  0.44528545     0.00000
C629        C  0.13387206  0.81913775  0.39208578    -0.11800
C630        C  0.10082893  0.83721396  0.38511940     0.02200
H631        H  0.07563854  0.84570677  0.52168790     0.15100
H632        H  0.14983491  0.81189374  0.35536210     0.15100
C633        C  0.09344069  0.84859642  0.33000792     0.36800
C634        C  0.13877910  0.81204700  0.54826268     0.36700
N635        N  0.08755625  0.85734753  0.28562075    -0.43600
N636        N  0.14866316  0.80518596  0.59281517    -0.43500
C637        C  0.42876502  0.85133640  0.45675959     0.00000
C638        C  0.38886297  0.85492083  0.43358680    -0.11800
C639        C  0.35363197  0.84479871  0.45984330     0.02300
C640        C  0.35784568  0.82904250  0.50940015     0.00000
C641        C  0.39794578  0.82608338  0.53336058    -0.11800
C642        C  0.43305708  0.83704141  0.50764449     0.02200
H643        H  0.38509746  0.86589100  0.39456758     0.15100
H644        H  0.40229611  0.81430519  0.57150050     0.15100
C645        C  0.47299048  0.83309326  0.53440322     0.36800
C646        C  0.31390285  0.85094959  0.43417293     0.36700
N647        N  0.50458702  0.82949883  0.55684242    -0.43600
N648        N  0.28218363  0.85621272  0.41349231    -0.43500
C649        C  0.43315309  0.91113377  0.43946681     0.00000
C650        C  0.42907166  0.91420541  0.49723473    -0.11800
C651        C  0.39422857  0.92710852  0.51911277     0.02300
C652        C  0.36210817  0.93614045  0.48272392     0.00000
C653        C  0.36585567  0.93246227  0.42511247    -0.11800
C654        C  0.40143260  0.92052503  0.40315779     0.02200
H655        H  0.45292568  0.90601081  0.52520067     0.15100
H656        H  0.34121212  0.93939250  0.39720470     0.15100
C657        C  0.40299176  0.91609135  0.34379649     0.36800
C658        C  0.39171374  0.93014876  0.57891872     0.36700
N659        N  0.40308840  0.91265830  0.29607241    -0.43600
N660        N  0.38976874  0.93269088  0.62681941    -0.43500
C661        C  0.14346300  0.94808038  0.45304896     0.00000
C662        C  0.10256814  0.95544506  0.46594179    -0.11800
C663        C  0.06965236  0.93675497  0.45889395     0.02300
C664        C  0.07688192  0.90998155  0.43675380     0.00000
C665        C  0.11871201  0.90238311  0.42833782    -0.11800
C666        C  0.15152025  0.92077557  0.43640424     0.02200
H667        H  0.09605276  0.97629284  0.47987519     0.15100
H668        H  0.12674484  0.88330066  0.40921548     0.15100
C669        C  0.19243079  0.91195167  0.41990838     0.36800
C670        C  0.02912581  0.94629487  0.47477115     0.36700
N671        N  0.22518876  0.90513665  0.40631240    -0.43600
N672        N  0.99754076  0.95527875  0.48830049    -0.43500
C673        C  0.10332617  0.66896316  0.00595162     0.00000
C674        C  0.14423164  0.67804042  0.01655986    -0.11800
C675        C  0.17793111  0.66852209  0.98560330     0.02300
C676        C  0.17181056  0.64897233  0.94278924     0.00000
C677        C  0.13099794  0.64010258  0.93116414    -0.11800
C678        C  0.09706370  0.64959396  0.96234827     0.02200
H679        H  0.15025147  0.69309240  0.04910435     0.15100
H680        H  0.12577102  0.62499243  0.89851624     0.15100
C681        C  0.05668519  0.63830606  0.94953860     0.36800
C682        C  0.21863299  0.67847887  0.00091037     0.36700
N683        N  0.02454369  0.62891788  0.93913934    -0.43600
N684        N  0.25069621  0.68694883  0.01458977    -0.43500
C685        C  0.31350151  0.66345032  0.93171425     0.00000
C686        C  0.33768433  0.65804236  0.98035234    -0.11800
C687        C  0.37375968  0.67331706  0.99287585     0.02300
C688        C  0.38460038  0.69569458  0.95841702     0.00000
C689        C  0.35640677  0.70357123  0.91579782    -0.11800
C690        C  0.32203263  0.68780056  0.90155947     0.02200
H691        H  0.32996927  0.64071358  0.00671645     0.15100
H692        H  0.36234820  0.72153455  0.89019739     0.15100
C693        C  0.29901507  0.69706712  0.85300632     0.36800
C694        C  0.39923704  0.66502972  0.04002909     0.36700
N695        N  0.28188533  0.70637565  0.81458024    -0.43600
N696        N  0.41951274  0.65824747  0.07795314    -0.43500
C697        C  0.11142152  0.79614006  0.07585741     0.00000
C698        C  0.12012762  0.81229990  0.02868743    -0.11800
C699        C  0.15389230  0.83067874  0.02928572     0.02300
C700        C  0.17742080  0.83443730  0.07901681     0.00000
C701        C  0.16875974  0.81812140  0.12542344    -0.11800
C702        C  0.13724964  0.79870859  0.12391667     0.02200
H703        H  0.10134298  0.81001469  0.99105032     0.15100
H704        H  0.18667141  0.82063606  0.16378486     0.15100
C705        C  0.13279267  0.78179002  0.17298156     0.36800
C706        C  0.16401706  0.84517782  0.97874677     0.36700
N707        N  0.13086862  0.76808512  0.21233575    -0.43600
N708        N  0.17221137  0.85696027  0.93842396    -0.43500
C709        C  0.39260086  0.81555796  0.01809774     0.00000
C710        C  0.39643302  0.83248752  0.06573885    -0.11800
C711        C  0.36181148  0.84610379  0.08778959     0.02300
C712        C  0.32249841  0.84321375  0.06227480     0.00000
C713        C  0.31793868  0.82569754  0.01644860    -0.11800
C714        C  0.35229228  0.81224263  0.99360942     0.02200
H715        H  0.42636505  0.83485823  0.08642509     0.15100
H716        H  0.28740629  0.82308317  0.99751751     0.15100
C717        C  0.34438797  0.79510860  0.94532323     0.36800
C718        C  0.36662414  0.86250003  0.13757717     0.36700
N719        N  0.33761263  0.78144260  0.90667891    -0.43600
N720        N  0.36957927  0.87602446  0.17714192    -0.43500
C721        C  0.98967167  0.78854592  0.22105687     0.00000
C722        C  0.45741815  0.80839248  0.22203331    -0.11800
C723        C  0.45679778  0.82921653  0.26325469     0.02300
C724        C  0.99197758  0.83339687  0.29807892     0.00000
C725        C  0.01927199  0.81077946  0.30347766    -0.11800
C726        C  0.01826356  0.78850818  0.26646722     0.02200
H727        H  0.43194058  0.80703938  0.19207338     0.15100
H728        H  0.04084784  0.80970333  0.33817406     0.15100
C729        C  0.04595366  0.76566030  0.27829558     0.36800
C730        C  0.41761293  0.84206648  0.27598901     0.36700
N731        N  0.06767157  0.74727912  0.28919884    -0.43600
N732        N  0.38577769  0.85152881  0.28708163    -0.43500
C733        C  0.06955728  0.66536978  0.55803282     0.00000
C734        C  0.06753315  0.67041152  0.50025394    -0.11800
C735        C  0.10156790  0.68152934  0.47207015     0.02300
C736        C  0.13875806  0.68727443  0.50180210     0.00000
C737        C  0.14016516  0.68239253  0.55949308    -0.11800
C738        C  0.10609368  0.67220916  0.58773419     0.02200
H739        H  0.03997344  0.66444827  0.47675639     0.15100
H740        H  0.16810278  0.68654712  0.58327895     0.15100
C741        C  0.11075144  0.66820303  0.64700329     0.36800
C742        C  0.09839878  0.68513538  0.41239765     0.36700
N743        N  0.11608136  0.66550836  0.69453340    -0.43600
N744        N  0.09591751  0.68789389  0.36449029    -0.43500
C745        C  0.42652267  0.66109459  0.57853527     0.00000
C746        C  0.41150978  0.66183663  0.52289605    -0.11800
C747        C  0.37717878  0.67853326  0.50792040     0.02300
C748        C  0.35795333  0.69447992  0.54918660     0.00000
C749        C  0.37261788  0.69327180  0.60411615    -0.11800
C750        C  0.40601563  0.67677778  0.61928145     0.02200
H751        H  0.42696034  0.64974735  0.49127017     0.15100
H752        H  0.35784347  0.70572142  0.63587758     0.15100
C753        C  0.41600637  0.67601828  0.67788771     0.36800
C754        C  0.36350642  0.68000889  0.45042816     0.36700
N755        N  0.42014118  0.67717381  0.72578489    -0.43600
N756        N  0.35259685  0.68130620  0.40425258    -0.43500
C757        C  0.42793800  0.59821035  0.57020468     0.00000
C758        C  0.38884452  0.60398265  0.59326083    -0.11800
C759        C  0.35363675  0.58846409  0.57913175     0.02300
C760        C  0.35719591  0.56540765  0.54382223     0.00000
C761        C  0.39598901  0.55920439  0.52115046    -0.11800
C762        C  0.43095314  0.57559104  0.53301346     0.02200
H763        H  0.38573432  0.62025530  0.62382529     0.15100
H764        H  0.39916932  0.54106981  0.49502713     0.15100
C765        C  0.46923470  0.56832887  0.50635270     0.36800
C766        C  0.31438483  0.59591217  0.60331894     0.36700
N767        N  0.49937087  0.56171764  0.48435215    -0.43600
N768        N  0.28283376  0.60210711  0.62210173    -0.43500
C769        C  0.07534965  0.60561238  0.54825293     0.00000
C770        C  0.07369287  0.60197880  0.49023476    -0.11800
C771        C  0.10760878  0.59066254  0.46202500     0.02300
C772        C  0.14435270  0.58364152  0.49216236     0.00000
C773        C  0.14666235  0.58937449  0.54932646    -0.11800
C774        C  0.11255795  0.59979031  0.57731360     0.02200
H775        H  0.04588959  0.60794780  0.46707740     0.15100
H776        H  0.17448538  0.58420445  0.57324964     0.15100
C777        C  0.11701135  0.60406848  0.63620145     0.36800
C778        C  0.10394944  0.58668224  0.40245137     0.36700
N779        N  0.12257419  0.60704549  0.68346466    -0.43600
N780        N  0.10091009  0.58353217  0.35469213    -0.43500
C781        C  0.51069646  0.65818150  0.72993053     0.00000
C782        C  0.03016751  0.68426483  0.72804826    -0.11800
C783        C  0.03112422  0.70225905  0.77386447     0.02300
C784        C  0.51256906  0.69452003  0.82397314     0.00000
C785        C  0.49283401  0.66873981  0.82662073    -0.11800
C786        C  0.49058754  0.65104599  0.78014793     0.02200
H787        H  0.04421036  0.69127246  0.69004744     0.15100
H788        H  0.47648148  0.66321713  0.86419732     0.15100
C789        C  0.46249239  0.62807318  0.78326290     0.36800
C790        C  0.05131878  0.72859954  0.76838610     0.36700
N791        N  0.43958743  0.60983614  0.78592715    -0.43600
N792        N  0.06735518  0.74977673  0.76413604    -0.43500
C793        C  0.32790624  0.59909218  0.93437518     0.00000
C794        C  0.32174674  0.57534808  0.96680551    -0.11800
C795        C  0.35417815  0.55666569  0.97806871     0.02300
C796        C  0.39474437  0.56230251  0.96003360     0.00000
C797        C  0.40202231  0.58737430  0.93265720    -0.11800
C798        C  0.36904116  0.60529804  0.91817734     0.02200
H799        H  0.29068083  0.57028465  0.98005107     0.15100
H800        H  0.43269686  0.59138925  0.91660625     0.15100
C801        C  0.37780262  0.62766139  0.88055809     0.36800
C802        C  0.34416323  0.53064340  0.00371980     0.36700
N803        N  0.38489480  0.64579779  0.85086498    -0.43600
N804        N  0.33556641  0.00970982  0.02349899    -0.43500
C805        C  0.11633786  0.55960767  0.98441364     0.00000
C806        C  0.13980257  0.57636643  0.02038439    -0.11800
C807        C  0.17475861  0.59016596  0.00097545     0.02300
C808        C  0.18559899  0.58786823  0.94430002     0.00000
C809        C  0.16415237  0.56940690  0.90971167    -0.11800
C810        C  0.13021638  0.55483322  0.92966136     0.02200
H811        H  0.13084475  0.57860701  0.06358225     0.15100
H812        H  0.17328026  0.56690620  0.86662971     0.15100
C813        C  0.11205116  0.53390100  0.89428886     0.36800
C814        C  0.19904162  0.60643618  0.03977258     0.36700
N815        N  0.09869505  0.51678693  0.86566334    -0.43600
N816        N  0.21849983  0.61933885  0.07114109    -0.43500
C817        C  0.50359631  0.54804127  0.79619091     0.00000
C818        C  0.03306412  0.56926118  0.80264646    -0.11800
C819        C  0.03740921  0.59022000  0.76272424     0.02300
C820        C  0.51163009  0.59050098  0.71422008     0.00000
C821        C  0.48360138  0.56852221  0.70668964    -0.11800
C822        C  0.47940172  0.54756430  0.74635339     0.02200
H823        H  0.05193349  0.57029903  0.84042998     0.15100
H824        H  0.46296842  0.56829517  0.67052006     0.15100
C825        C  0.44852284  0.52671077  0.73504987     0.36800
C826        C  0.06683368  0.61164593  0.77563091     0.36700
N827        N  0.42370435  0.51010077  0.72570179    -0.43600
N828        N  0.09034625  0.62856374  0.78834981    -0.43500
C829        C  0.31236450  0.90406256  0.04560378     0.00000
C830        C  0.33335305  0.92440488  0.07591077    -0.11800
C831        C  0.36623734  0.93851050  0.05222578     0.02300
C832        C  0.37930854  0.93141197  0.99813300     0.00000
C833        C  0.35651715  0.91246074  0.96636955    -0.11800
C834        C  0.32258034  0.89909031  0.98941632     0.02200
H835        H  0.32459824  0.92885407  0.11849387     0.15100
H836        H  0.36488197  0.90844207  0.92346451     0.15100
C837        C  0.29709363  0.88190892  0.95376745     0.36800
C838        C  0.38560879  0.96032185  0.08413979     0.36700
N839        N  0.27635009  0.86852861  0.92481752    -0.43600
N840        N  0.40029220  0.47796799  0.11013726    -0.43500
C841        C  0.09947740  0.92900481  0.01743622     0.00000
C842        C  0.13926652  0.93648435  0.00070633    -0.11800
C843        C  0.17421411  0.92096078  0.01693418     0.02300
C844        C  0.16990859  0.89801901  0.05320692     0.00000
C845        C  0.12951133  0.88978435  0.06673662    -0.11800
C846        C  0.09461466  0.90419931  0.04692578     0.02200
H847        H  0.14328822  0.95562160  0.97794041     0.15100
H848        H  0.12478293  0.87295219  0.09551793     0.15100
C849        C  0.05425853  0.89381356  0.06040506     0.36800
C850        C  0.21371502  0.93000687  0.99655201     0.36700
N851        N  0.02234942  0.88441822  0.07030918    -0.43600
N852        N  0.24454216  0.93827806  0.97923279    -0.43500
C853        C  0.00399306  0.90082885  0.27438707     0.00000
C854        C  0.47663357  0.89658932  0.22876102    -0.11800
C855        C  0.47514478  0.91457136  0.18224030     0.02300
C856        C  0.99959645  0.93877700  0.18151024     0.00000
C857        C  0.02814635  0.94223630  0.22560100    -0.11800
C858        C  0.03202244  0.92317173  0.26925775     0.02200
H859        H  0.45561878  0.87966600  0.22885587     0.15100
H860        H  0.04991391  0.95921325  0.22451708     0.15100
C861        C  0.06913295  0.92586674  0.30269757     0.36800
C862        C  0.45059333  0.90644094  0.13442479     0.36700
N863        N  0.10095575  0.92967778  0.32407269    -0.43600
N864        N  0.43276320  0.89938785  0.09473831    -0.43500
O865        O  0.90507671  0.46616470  0.94099391    -0.80700
O866        O  0.54446010  0.04968317  0.98908800    -0.65400
O867        O  0.98553026  0.48649715  0.94163868    -1.12000
C868        C  0.50155219  0.45868904  0.13315063     1.06200
O869        O  0.58896996  0.02428962  0.03905393    -0.78600
O870        O  0.57998597  0.47057346  0.05607919    -0.66200
Ni871      Ni  0.93886820  0.48786391  0.89244397     1.34900
C872        C  0.56865370  0.45120880  0.02387836     0.84900
O873        O  0.51525719  0.03412206  0.89029326    -0.79100
O874        O  0.96843135  0.01035765  0.83991857    -0.89400
C875        C  0.58101917  0.04437507  0.00655422     0.84500
O876        O  0.91349086  0.01998116  0.92202405    -0.67600
O877        O  0.52576945  0.47936717  0.13846637    -0.86900
C878        C  0.92539027  0.03965819  0.95312322     0.85300
C879        C  0.99567708  0.02931737  0.84468703     1.06900
H880        H  0.48711700  0.01412621  0.05721248     0.38700
O881        O  0.50787712  0.00368014  0.03754046    -1.09600
O882        O  0.53249355  0.44950634  0.00166703    -0.66200
Ni883      Ni  0.98200211  0.47037232  0.01453730     1.26300
O884        O  0.96197203  0.04123531  0.97453258    -0.66400
O885        O  0.98122224  0.45386398  0.08802556    -0.78700
C886        C  0.91377103  0.44583346  0.97264870     0.84700
O887        O  0.95067079  0.44013222  0.98800610    -0.65900
Ni888      Ni  0.55470859  0.00234625  0.08656183     1.27400
Ni889      Ni  0.51229031  0.01930291  0.96416443     1.26100
H890        H  0.00600324  0.47607286  0.92139620     0.39300
C891        C  0.00660924  0.10336451  0.60809970     0.45700
H892        H  0.50942515  0.08072609  0.60245931    -0.03400
C893        C  0.00240660  0.15649396  0.61993079     0.45700
H894        H  0.99996267  0.17927490  0.62281614    -0.03400
C895        C  0.01093308  0.11264010  0.66999751    -0.17100
C896        C  0.54029959  0.11910973  0.57698000    -0.16800
C897        C  0.96472832  0.11558147  0.58741387    -0.17200
C898        C  0.50869343  0.14128136  0.67659623    -0.17200
C899        C  0.53814256  0.14696773  0.58310334    -0.16700
C900        C  0.96304402  0.14375977  0.59370881    -0.17100
O901        O  0.57879134  0.19990028  0.07559776    -0.80700
O902        O  0.96373716  0.30048061  0.02598429    -0.65400
O903        O  0.50476029  0.23007130  0.06957390    -1.12000
C904        C  0.00912137  0.21340982  0.87260290     1.06200
O905        O  0.92541670  0.28323555  0.95745223    -0.78600
O906        O  0.92726368  0.23104310  0.92733293    -0.66200
Ni907      Ni  0.54763757  0.22463732  0.12324453     1.34900
C908        C  0.92462524  0.21114609  0.96150535     0.84900
O909        O  0.97704935  0.27726452  0.12539352    -0.79100
O910        O  0.52097225  0.24997461  0.17450553    -0.89400
C911        C  0.92966312  0.29957526  0.99864112     0.84500
O912        O  0.58256588  0.25346447  0.09915805    -0.67600
O913        O  0.99576659  0.23805726  0.86521284    -0.86900
C914        C  0.57622293  0.27651010  0.07543239     0.85300
C915        C  0.49540838  0.27032912  0.17100122     1.06900
H916        H  0.02498709  0.26197063  0.96491461     0.38700
O917        O  0.99900344  0.25379873  0.97547882    -1.09600
O918        O  0.95451706  0.20421312  0.99453492    -0.66200
Ni919      Ni  0.51190437  0.21678828  0.99527708     1.26300
O920        O  0.54113762  0.28368920  0.05436004    -0.66400
O921        O  0.51667643  0.20324838  0.92060204    -0.78700
C922        C  0.56880973  0.18290075  0.03697362     0.84700
O923        O  0.53144582  0.18177391  0.01946433    -0.65900
Ni924      Ni  0.96291699  0.26095396  0.91415495     1.27400
Ni925      Ni  0.98701747  0.26613882  0.04975565     1.26100
H926        H  0.48091996  0.22095459  0.08489720     0.39300
C927        C  0.00289007  0.40214409  0.38508639     0.45700
H928        H  0.50293694  0.42476445  0.37807130    -0.03400
C929        C  0.00002323  0.34934751  0.40191880     0.45700
H930        H  0.99874221  0.32684113  0.41042901    -0.03400
C931        C  0.00020942  0.38530250  0.32956920    -0.17100
C932        C  0.54161286  0.39128201  0.41737772    -0.16800
C933        C  0.96587215  0.39263967  0.41943153    -0.17200
C934        C  0.49623742  0.35685656  0.33934634    -0.17200
C935        C  0.54053687  0.36300464  0.42345458    -0.16700
C936        C  0.96451557  0.36496298  0.42902118    -0.17100
O937        O  0.83528629  0.47136289  0.53829002    -0.80700
O938        O  0.71272540  0.06537565  0.49276076    -0.65400
O939        O  0.75663050  0.49547009  0.53239776    -1.12000
C940        C  0.74718946  0.47509475  0.33995658     1.06200
O941        O  0.66660622  0.04791423  0.43271951    -0.78600
O942        O  0.66365124  0.49307450  0.42845741    -0.66200
Ni943      Ni  0.79936512  0.49084702  0.58727510     1.34900
C944        C  0.67542087  0.46986257  0.44751072     0.84900
O945        O  0.73171945  0.04256194  0.59213958    -0.79100
O946        O  0.76767499  0.01048755  0.64118713    -0.89400
C947        C  0.67709010  0.06562708  0.46937048     0.84500
O948        O  0.83001777  0.02337197  0.57229939    -0.67600
O949        O  0.71668254  0.49202947  0.34062757    -0.86900
C950        C  0.82401286  0.04442919  0.54179339     0.85300
C951        C  0.74642005  0.03269260  0.63801716     1.06900
H952        H  0.76363084  0.02981279  0.42129408     0.38700
O953        O  0.74228215  0.01905034  0.43873495    -1.09600
O954        O  0.71344670  0.46401136  0.45770013    -0.66200
Ni955      Ni  0.76539772  0.48396379  0.45703700     1.26300
O956        O  0.79069413  0.04866471  0.51328882    -0.66400
O957        O  0.77302508  0.47288561  0.38061726    -0.78700
C958        C  0.82740600  0.45278226  0.50257217     0.84700
O959        O  0.79203679  0.45074217  0.47924191    -0.65900
Ni960      Ni  0.69470098  0.02012584  0.38979740     1.27400
Ni961      Ni  0.73649610  0.03116360  0.51484152     1.26100
H962        H  0.73330292  0.48536370  0.54657800     0.39300
C963        C  0.75179190  0.34661028  0.11584196     0.45700
H964        H  0.75528865  0.32388036  0.12000142    -0.03400
C965        C  0.74391801  0.39953074  0.10395918     0.45700
H966        H  0.74128211  0.42226725  0.09957378    -0.03400
C967        C  0.75305000  0.36217043  0.17206333    -0.17100
C968        C  0.78605379  0.35932963  0.08152114    -0.16800
C969        C  0.71077728  0.35528825  0.08675739    -0.17200
C970        C  0.74828430  0.39052739  0.16576608    -0.17200
C971        C  0.78178828  0.38718231  0.07489663    -0.16700
C972        C  0.70670223  0.38345963  0.07925687    -0.17100
O973        O  0.67048258  0.21822798  0.43755979    -0.80700
O974        O  0.78829897  0.31147697  0.50671393    -0.65400
O975        O  0.74958445  0.24230725  0.45472203    -1.12000
C976        C  0.75107282  0.21553875  0.64133444     1.06200
O977        O  0.83312916  0.29278771  0.56670724    -0.78600
O978        O  0.83513465  0.23948033  0.55174668    -0.66200
Ni979      Ni  0.71024231  0.23919908  0.39459672     1.34900
C980        C  0.82539822  0.21507885  0.53931111     0.84900
O981        O  0.77307108  0.29243563  0.40523749    -0.79100
O982        O  0.74508702  0.26120150  0.34656015    -0.89400
C983        C  0.82378082  0.31108923  0.53032888     0.84500
O984        O  0.67890886  0.27119576  0.41106560    -0.67600
O985        O  0.78393347  0.23032615  0.64289017    -0.86900
C986        C  0.68111896  0.29026496  0.44718177     0.85300
C987        C  0.76260243  0.28438580  0.35644581     1.06900
H988        H  0.73716478  0.27356405  0.57063733     0.38700
O989        O  0.75881235  0.26329341  0.55231789    -1.09600
O990        O  0.78794361  0.20774150  0.53097955    -0.66200
Ni991      Ni  0.73654727  0.22908705  0.52738851     1.26300
O992        O  0.71177676  0.29337688  0.48080699    -0.66400
O993        O  0.72464650  0.21706878  0.60148273    -0.78700
C994        C  0.67546579  0.20051098  0.47638835     0.84700
O995        O  0.71073619  0.19695896  0.49923761    -0.65900
Ni996      Ni  0.80552917  0.26203483  0.60167307     1.27400
Ni997      Ni  0.76700478  0.27771937  0.47902436     1.26100
H998        H  0.77413575  0.23275191  0.44232264     0.39300
C999        C  0.74109788  0.15018172  0.88184054     0.45700
H1000       H  0.73429616  0.17255794  0.88027909    -0.03400
C1001       C  0.75342140  0.09729957  0.88689043     0.45700
H1002       H  0.75787868  0.07457661  0.88886825    -0.03400
C1003       C  0.74195786  0.13610909  0.82350128    -0.17100
C1004       C  0.78320744  0.14229688  0.91023899    -0.16800
C1005       C  0.70786398  0.13496777  0.91516746    -0.17200
C1006       C  0.74787926  0.10786090  0.82674096    -0.17200
C1007       C  0.78986412  0.11401230  0.91219751    -0.16700
C1008       C  0.71480321  0.10712712  0.91790314    -0.17100
C1009       C  0.74562142  0.19399531  0.68512822     0.00000
C1010       C  0.77668952  0.17391449  0.69182908    -0.11800
C1011       C  0.77510854  0.15392905  0.73413284     0.02300
C1012       C  0.74101025  0.15308432  0.77076886     0.00000
C1013       C  0.70885154  0.17261995  0.76245910    -0.11800
C1014       C  0.71094572  0.19292015  0.72019638     0.02200
H1015       H  0.80319581  0.17431357  0.66464505     0.15100
H1016       H  0.68293304  0.17283295  0.79074342     0.15100
C1017       C  0.67878359  0.21364266  0.71595975     0.36800
C1018       C  0.81143130  0.13683089  0.74149621     0.36700
N1019       N  0.65316991  0.23037975  0.71215759    -0.43600
N1020       N  0.84183267  0.12412890  0.74483528    -0.43500
C1021       C  0.75993542  0.34567947  0.22474043     0.00000
C1022       C  0.79006130  0.32429234  0.22418440    -0.11800
C1023       C  0.79212236  0.30390062  0.26613621     0.02300
C1024       C  0.76477066  0.30520737  0.31111563     0.00000
C1025       C  0.73663964  0.32727521  0.31355470    -0.11800
C1026       C  0.73302561  0.34679993  0.27063343     0.02200
H1027       H  0.81099659  0.32272411  0.18939681     0.15100
H1028       H  0.71604870  0.32867008  0.34870369     0.15100
C1029       C  0.69866919  0.36567080  0.27368754     0.36800
C1030       C  0.82207838  0.28183791  0.26183270     0.36700
N1031       N  0.67028642  0.37999817  0.27924849    -0.43600
N1032       N  0.84612761  0.26415243  0.25809835    -0.43500
C1033       C  0.74837027  0.41204369  0.21097677     0.00000
C1034       C  0.78599768  0.42073500  0.23585653    -0.11800
C1035       C  0.78701700  0.44303502  0.27396095     0.02300
C1036       C  0.74971941  0.45541202  0.29174680     0.00000
C1037       C  0.71271301  0.44770201  0.26448700    -0.11800
C1038       C  0.71213157  0.42746345  0.22276180     0.02200
H1039       H  0.81479149  0.41127034  0.22302450     0.15100
H1040       H  0.68374872  0.45756467  0.27575790     0.15100
C1041       C  0.67314873  0.42288022  0.19400250     0.36800
C1042       C  0.82617829  0.45577733  0.28748982     0.36700
N1043       N  0.64085216  0.42002857  0.17318797    -0.43600
N1044       N  0.85696408  0.46717151  0.29688180    -0.43500
C1045       C  0.74708296  0.08797252  0.77881417     0.00000
C1046       C  0.70934961  0.08255920  0.75025755    -0.11800
C1047       C  0.70728963  0.06258844  0.70729236     0.02300
C1048       C  0.74369459  0.04938053  0.68973782     0.00000
C1049       C  0.78033031  0.05328796  0.72072565    -0.11800
C1050       C  0.78187838  0.07130598  0.76611469     0.02200
H1051       H  0.68127878  0.09287521  0.76349494     0.15100
H1052       H  0.80829476  0.04227840  0.70904954     0.15100
C1053       C  0.82000248  0.07148022  0.79817704     0.36800
C1054       C  0.66769830  0.05292006  0.68674281     0.36700
N1055       N  0.85174722  0.07000117  0.82112109    -0.43600
N1056       N  0.63636189  0.04411745  0.67083842    -0.43500
C1057       C  0.57803827  0.34574542  0.43185747     0.00000
C1058       C  0.59174131  0.33801565  0.48558149    -0.11800
C1059       C  0.62638897  0.32051529  0.49269182     0.02300
C1060       C  0.64703055  0.31051995  0.44528020     0.00000
C1061       C  0.63387299  0.31913704  0.39208086    -0.11800
C1062       C  0.60083094  0.33721426  0.38511519     0.02200
H1063       H  0.57564041  0.34570597  0.52168396     0.15100
H1064       H  0.64983613  0.31189331  0.35535712     0.15100
C1065       C  0.59344300  0.34859714  0.33000398     0.36800
C1066       C  0.63877903  0.31204440  0.54825745     0.36700
N1067       N  0.58755911  0.35734859  0.28561696    -0.43600
N1068       N  0.64866307  0.30518277  0.59280959    -0.43500
C1069       C  0.92876173  0.35133539  0.45675864     0.00000
C1070       C  0.88885946  0.35492054  0.43358670    -0.11800
C1071       C  0.85362839  0.34479888  0.45984389     0.02300
C1072       C  0.85784231  0.32904191  0.50939968     0.00000
C1073       C  0.89794256  0.32608203  0.53335917    -0.11800
C1074       C  0.93305382  0.33704001  0.50764300     0.02200
H1075       H  0.88509376  0.36589112  0.39456803     0.15100
H1076       H  0.90229302  0.31430342  0.57149854     0.15100
C1077       C  0.97298730  0.33309189  0.53440147     0.36800
C1078       C  0.81389885  0.35095150  0.43417629     0.36700
N1079       N  0.00458413  0.32949781  0.55684013    -0.43600
N1080       N  0.78217918  0.35621603  0.41349840    -0.43500
C1081       C  0.93315105  0.41113274  0.43946721     0.00000
C1082       C  0.92907029  0.41420445  0.49723515    -0.11800
C1083       C  0.89422784  0.42710799  0.51911362     0.02300
C1084       C  0.86210713  0.43613978  0.48272515     0.00000
C1085       C  0.86585398  0.43246147  0.42511355    -0.11800
C1086       C  0.90143060  0.42052412  0.40315844     0.02200
H1087       H  0.95292455  0.40600984  0.52520072     0.15100
H1088       H  0.84121032  0.43939170  0.39720594     0.15100
C1089       C  0.90298961  0.41609026  0.34379711     0.36800
C1090       C  0.89171445  0.43014943  0.57891948     0.36700
N1091       N  0.90308670  0.41265687  0.29607312    -0.43600
N1092       N  0.88977055  0.43269291  0.62681999    -0.43500
C1093       C  0.64346549  0.44808125  0.45304344     0.00000
C1094       C  0.60257105  0.45544554  0.46593875    -0.11800
C1095       C  0.56965541  0.43675538  0.45889154     0.02300
C1096       C  0.57688482  0.40998210  0.43675067     0.00000
C1097       C  0.61871473  0.40238386  0.42833261    -0.11800
C1098       C  0.65152276  0.42077675  0.43639643     0.02200
H1099       H  0.59605580  0.47629313  0.47987350     0.15100
H1100       H  0.62674712  0.38330142  0.40920978     0.15100
C1101       C  0.69243233  0.41195402  0.41989395     0.36800
C1102       C  0.52912907  0.44629510  0.47476993     0.36700
N1103       N  0.72518930  0.40514006  0.40629178    -0.43600
N1104       N  0.49754413  0.45527885  0.48830000    -0.43500
C1105       C  0.60332614  0.16896484  0.00594604     0.00000
C1106       C  0.64423174  0.17804128  0.01655666    -0.11800
C1107       C  0.67793164  0.16852268  0.98560138     0.02300
C1108       C  0.67181131  0.14897368  0.94278601     0.00000
C1109       C  0.63099867  0.14010492  0.93115809    -0.11800
C1110       C  0.59706395  0.14959649  0.96234099     0.02200
H1111       H  0.65025147  0.19309256  0.04910252     0.15100
H1112       H  0.62577217  0.12499516  0.89850935     0.15100
C1113       C  0.55668536  0.13830945  0.94952845     0.36800
C1114       C  0.71863384  0.17847773  0.00091186     0.36700
N1115       N  0.52454392  0.12892179  0.93912671    -0.43600
N1116       N  0.75069753  0.18694592  0.01459395    -0.43500
C1117       C  0.81350309  0.16344965  0.93171336     0.00000
C1118       C  0.83768456  0.15804201  0.98035292    -0.11800
C1119       C  0.87375964  0.17331680  0.99287783     0.02300
C1120       C  0.88460146  0.19569388  0.95841858     0.00000
C1121       C  0.85640962  0.20356981  0.91579678    -0.11800
C1122       C  0.82203614  0.18779895  0.90155687     0.02200
H1123       H  0.82996849  0.14071357  0.00671739     0.15100
H1124       H  0.86235241  0.22153242  0.89019492     0.15100
C1125       C  0.79902295  0.19706330  0.85299840     0.36800
C1126       C  0.89923555  0.16503023  0.04003309     0.36700
N1127       N  0.78189776  0.20637021  0.81456716    -0.43600
N1128       N  0.91951037  0.15824884  0.07795861    -0.43500
C1129       C  0.61142055  0.29614212  0.07585427     0.00000
C1130       C  0.62012685  0.31230232  0.02868484    -0.11800
C1131       C  0.65389143  0.33068132  0.02928405     0.02300
C1132       C  0.67741970  0.33443964  0.07901552     0.00000
C1133       C  0.66875811  0.31812359  0.12542174    -0.11800
C1134       C  0.63724809  0.29871070  0.12391407     0.02200
H1135       H  0.60134257  0.31001720  0.99104739     0.15100
H1136       H  0.68666947  0.32063811  0.16378348     0.15100
C1137       C  0.63279060  0.28179197  0.17297863     0.36800
C1138       C  0.66401634  0.34518069  0.97874550     0.36700
N1139       N  0.63086599  0.26808691  0.21233252    -0.43600
N1140       N  0.67221061  0.35696328  0.93842285    -0.43500
C1141       C  0.89260145  0.31555759  0.01809896     0.00000
C1142       C  0.89643295  0.33248702  0.06574021    -0.11800
C1143       C  0.86181124  0.34610355  0.08778995     0.02300
C1144       C  0.82249848  0.34321420  0.06227369     0.00000
C1145       C  0.81793933  0.32569807  0.01644713    -0.11800
C1146       C  0.85229310  0.31224245  0.99360964     0.02200
H1147       H  0.92636466  0.33485739  0.08642750     0.15100
H1148       H  0.78740725  0.32308398  0.99751496     0.15100
C1149       C  0.84438915  0.29510732  0.94532491     0.36800
C1150       C  0.86662370  0.36249930  0.13757818     0.36700
N1151       N  0.83761439  0.28144021  0.90668203    -0.43600
N1152       N  0.86957936  0.37602320  0.17714360    -0.43500
C1153       C  0.48967254  0.28854689  0.22105474     0.00000
C1154       C  0.95741698  0.30839145  0.22203528    -0.11800
C1155       C  0.95679655  0.32921552  0.26325649     0.02300
C1156       C  0.49197881  0.33339787  0.29807725     0.00000
C1157       C  0.51927299  0.31078032  0.30347585    -0.11800
C1158       C  0.51826422  0.28850896  0.26646542     0.02200
H1159       H  0.93193936  0.30703818  0.19207546     0.15100
H1160       H  0.54084892  0.30970413  0.33817217     0.15100
C1161       C  0.54595357  0.26566076  0.27829442     0.36800
C1162       C  0.91761155  0.34206522  0.27599097     0.36700
N1163       N  0.56767098  0.24727944  0.28919850    -0.43600
N1164       N  0.88577599  0.35152702  0.28708367    -0.43500
C1165       C  0.56955935  0.16536890  0.55803129     0.00000
C1166       C  0.56753319  0.17041294  0.50025339    -0.11800
C1167       C  0.60156810  0.18152970  0.47206829     0.02300
C1168       C  0.63876080  0.18727112  0.50179755     0.00000
C1169       C  0.64017051  0.18238603  0.55948751    -0.11800
C1170       C  0.60609845  0.17220455  0.58773041     0.02200
H1171       H  0.53997142  0.16445238  0.47675735     0.15100
H1172       H  0.66811029  0.18653717  0.58327140     0.15100
C1173       C  0.61075716  0.16819788  0.64699934     0.36800
C1174       C  0.59839616  0.18513841  0.41239667     0.36700
N1175       N  0.61608741  0.16550311  0.69452938    -0.43600
N1176       N  0.59591264  0.18789899  0.36448996    -0.43500
C1177       C  0.92652236  0.16109424  0.57853892     0.00000
C1178       C  0.91151163  0.16183751  0.52289891    -0.11800
C1179       C  0.87718132  0.17853447  0.50792246     0.02300
C1180       C  0.85795404  0.19448002  0.54918876     0.00000
C1181       C  0.87261666  0.19327092  0.60411926    -0.11800
C1182       C  0.90601422  0.17677677  0.61928523     0.02200
H1183       H  0.92696352  0.14974903  0.49127299     0.15100
H1184       H  0.85784090  0.20571977  0.63588075     0.15100
C1185       C  0.91600398  0.17601637  0.67789188     0.36800
C1186       C  0.86351187  0.18001183  0.45042923     0.36700
N1187       N  0.92013876  0.17717075  0.72578922    -0.43600
N1188       N  0.85260484  0.18131061  0.40425279    -0.43500
C1189       C  0.92793780  0.09820958  0.57020830     0.00000
C1190       C  0.88884346  0.10398260  0.59326168    -0.11800
C1191       C  0.85363603  0.08846351  0.57913303     0.02300
C1192       C  0.85719622  0.06540595  0.54382690     0.00000
C1193       C  0.89598999  0.05920189  0.52115801    -0.11800
C1194       C  0.93095383  0.07558893  0.53302040     0.02200
H1195       H  0.88573228  0.12025593  0.62382435     0.15100
H1196       H  0.89917100  0.04106646  0.49503728     0.15100
C1197       C  0.96923603  0.06832559  0.50636251     0.36800
C1198       C  0.81438347  0.09591156  0.60331855     0.36700
N1199       N  0.99937273  0.06171326  0.48436453    -0.43600
N1200       N  0.78283157  0.10210577  0.62209983    -0.43500
C1201       C  0.57534917  0.10561164  0.54825102     0.00000
C1202       C  0.57369473  0.10198032  0.49023217    -0.11800
C1203       C  0.60761122  0.09066413  0.46202357     0.02300
C1204       C  0.64435348  0.08364138  0.49216293     0.00000
C1205       C  0.64666071  0.08937196  0.54932819    -0.11800
C1206       C  0.61255550  0.09978726  0.57731402     0.02200
H1207       H  0.54589285  0.10795096  0.46707348     0.15100
H1208       H  0.67448235  0.08420047  0.57325301     0.15100
C1209       C  0.61700587  0.10406306  0.63620290     0.36800
C1210       C  0.60395419  0.08668563  0.40244924     0.36700
N1211       N  0.62256531  0.10703863  0.68346710    -0.43600
N1212       N  0.60091667  0.08353691  0.35468946    -0.43500
C1213       C  0.01069578  0.15818159  0.72993375     0.00000
C1214       C  0.53017088  0.18426390  0.72804573    -0.11800
C1215       C  0.53112626  0.20225884  0.77386106     0.02300
C1216       C  0.01257009  0.19451911  0.82397772     0.00000
C1217       C  0.99283695  0.16873830  0.82662598    -0.11800
C1218       C  0.99058947  0.15104497  0.78015254     0.02200
H1219       H  0.54421649  0.19127025  0.69004573     0.15100
H1220       H  0.97648642  0.16321475  0.86420369     0.15100
C1221       C  0.96249575  0.12807148  0.78326919     0.36800
C1222       C  0.55132252  0.22859871  0.76838278     0.36700
N1223       N  0.93959194  0.10983388  0.78593548    -0.43600
N1224       N  0.56736026  0.24977542  0.76413217    -0.43500
C1225       C  0.82790734  0.09909234  0.93437383     0.00000
C1226       C  0.82174904  0.07534885  0.96680630    -0.11800
C1227       C  0.85418124  0.05666713  0.97807031     0.02300
C1228       C  0.89474697  0.06230384  0.96003321     0.00000
C1229       C  0.90202368  0.08737504  0.93265368    -0.11800
C1230       C  0.86904177  0.10529827  0.91817383     0.02200
H1231       H  0.79068349  0.07028537  0.98005318     0.15100
H1232       H  0.93269771  0.09138985  0.91660087     0.15100
C1233       C  0.87780157  0.12766102  0.88055225     0.36800
C1234       C  0.84416761  0.03064524  0.00372380     0.36700
N1235       N  0.88489203  0.14579683  0.85085685    -0.43600
N1236       N  0.83557202  0.50971207  0.02350566    -0.43500
C1237       C  0.61633519  0.05960948  0.98441066     0.00000
C1238       C  0.63979876  0.07636888  0.02038139    -0.11800
C1239       C  0.67475560  0.09016786  0.00097356     0.02300
C1240       C  0.68559755  0.08786943  0.94429882     0.00000
C1241       C  0.66415180  0.06940754  0.90971048    -0.11800
C1242       C  0.63021543  0.05483396  0.92965962     0.02200
H1243       H  0.63083988  0.07860998  0.06357872     0.15100
H1244       H  0.67328103  0.06690601  0.86662929     0.15100
C1245       C  0.61205181  0.03390036  0.89428890     0.36800
C1246       C  0.69903855  0.10643750  0.03977171     0.36700
N1247       N  0.59869650  0.01678493  0.86566606    -0.43600
N1248       N  0.71849676  0.11933943  0.07114148    -0.43500
C1249       C  0.00359886  0.04804184  0.79619371     0.00000
C1250       C  0.53306078  0.06926104  0.80264514    -0.11800
C1251       C  0.53740594  0.09022013  0.76272362     0.02300
C1252       C  0.01163196  0.09050115  0.71422236     0.00000
C1253       C  0.98360251  0.06852278  0.70669313    -0.11800
C1254       C  0.97940305  0.04756513  0.74635723     0.02200
H1255       H  0.55192951  0.07029897  0.84042926     0.15100
H1256       H  0.96296857  0.06829606  0.67052452     0.15100
C1257       C  0.94852224  0.02671259  0.73505587     0.36800
C1258       C  0.56682949  0.11164633  0.77563234     0.36700
N1259       N  0.92370206  0.01010342  0.72570998    -0.43600
N1260       N  0.59034152  0.12856427  0.78835247    -0.43500
C1261       C  0.81236608  0.40406312  0.04560347     0.00000
C1262       C  0.83335590  0.42440470  0.07591101    -0.11800
C1263       C  0.86624042  0.43851007  0.05222587     0.02300
C1264       C  0.87931084  0.43141183  0.99813261     0.00000
C1265       C  0.85651868  0.41246107  0.96636902    -0.11800
C1266       C  0.82258138  0.39909115  0.98941574     0.02200
H1267       H  0.82460161  0.42885370  0.11849438     0.15100
H1268       H  0.86488303  0.40844258  0.92346373     0.15100
C1269       C  0.79709358  0.38191063  0.95376656     0.36800
C1270       C  0.88561239  0.46032132  0.08413962     0.36700
N1271       N  0.77634915  0.36853105  0.92481639    -0.43600
N1272       N  0.90029610  0.97796754  0.11013647    -0.43500
C1273       C  0.59947702  0.42900657  0.01743454     0.00000
C1274       C  0.63926638  0.43648651  0.00070610    -0.11800
C1275       C  0.67421419  0.42096351  0.01693572     0.02300
C1276       C  0.66990863  0.39802158  0.05320810     0.00000
C1277       C  0.62951111  0.38978666  0.06673665    -0.11800
C1278       C  0.59461435  0.40420116  0.04692429     0.02200
H1279       H  0.64328803  0.45562379  0.97794025     0.15100
H1280       H  0.62478248  0.37295450  0.09551788     0.15100
C1281       C  0.55425790  0.39381540  0.06040237     0.36800
C1282       C  0.71371541  0.43001051  0.99655614     0.36700
N1283       N  0.52234806  0.38442075  0.07030507    -0.43600
N1284       N  0.74454301  0.43828234  0.97923959    -0.43500
C1285       C  0.50399385  0.40083003  0.27438580     0.00000
C1286       C  0.97663386  0.39658776  0.22876139    -0.11800
C1287       C  0.97514563  0.41456956  0.18224019     0.02300
C1288       C  0.49959616  0.43877863  0.18150982     0.00000
C1289       C  0.52814695  0.44223753  0.22559967    -0.11800
C1290       C  0.53202350  0.42317272  0.26925596     0.02200
H1291       H  0.95561936  0.37966424  0.22885597     0.15100
H1292       H  0.54991485  0.45921427  0.22451523     0.15100
C1293       C  0.56913478  0.42586716  0.30269432     0.36800
C1294       C  0.95059492  0.40643881  0.13442417     0.36700
N1295       N  0.60095820  0.42967776  0.32406805    -0.43600
N1296       N  0.93276529  0.39938541  0.09473750    -0.43500
O1297       O  0.90507671  0.96616478  0.94099414    -0.80700
O1298       O  0.54446002  0.54968320  0.98908795    -0.65400
O1299       O  0.98553028  0.98649718  0.94163875    -1.12000
C1300       C  0.50155220  0.95868898  0.13315068     1.06200
O1301       O  0.58896990  0.52428966  0.03905385    -0.78600
O1302       O  0.57998600  0.97057341  0.05607936    -0.66200
Ni1303     Ni  0.93886821  0.98786393  0.89244410     1.34900
C1304       C  0.56865376  0.95120878  0.02387847     0.84900
O1305       O  0.51525713  0.53412208  0.89029319    -0.79100
O1306       O  0.96843128  0.51035767  0.83991849    -0.89400
C1307       C  0.58101910  0.54437510  0.00655412     0.84500
O1308       O  0.91349082  0.51998110  0.92202403    -0.67600
O1309       O  0.52576943  0.97936713  0.13846645    -0.86900
C1310       C  0.92539025  0.53965813  0.95312321     0.85300
C1311       C  0.99567703  0.52931737  0.84468697     1.06900
H1312       H  0.48711689  0.51412628  0.05721248     0.38700
O1313       O  0.50787705  0.50368018  0.03754042    -1.09600
O1314       O  0.53249362  0.94950633  0.00166707    -0.66200
Ni1315     Ni  0.98200213  0.97037234  0.01453735     1.26300
O1316       O  0.96197202  0.54123526  0.97453252    -0.66400
O1317       O  0.98122223  0.95386399  0.08802560    -0.78700
C1318       C  0.91377105  0.94583349  0.97264879     0.84700
O1319       O  0.95067082  0.94013224  0.98800612    -0.65900
Ni1320     Ni  0.55470856  0.50234629  0.08656174     1.27400
Ni1321     Ni  0.51229024  0.51930294  0.96416438     1.26100
H1322       H  0.00600324  0.97607290  0.92139626     0.39300
C1323       C  0.00660924  0.60336453  0.60809960     0.45700
H1324       H  0.50942517  0.58072607  0.60245915    -0.03400
C1325       C  0.00240661  0.65649398  0.61993078     0.45700
H1326       H  0.99996268  0.67927492  0.62281620    -0.03400
C1327       C  0.01093311  0.61264009  0.66999743    -0.17100
C1328       C  0.54029959  0.61910972  0.57697986    -0.16800
C1329       C  0.96472832  0.61558150  0.58741381    -0.17200
C1330       C  0.50869346  0.64128132  0.67659617    -0.17200
C1331       C  0.53814258  0.64696772  0.58310327    -0.16700
C1332       C  0.96304403  0.64375980  0.59370877    -0.17100
O1333       O  0.57879137  0.69990020  0.07559777    -0.80700
O1334       O  0.96373718  0.80048053  0.02598432    -0.65400
O1335       O  0.50476028  0.73007121  0.06957392    -1.12000
C1336       C  0.00912141  0.71340974  0.87260293     1.06200
O1337       O  0.92541676  0.78323549  0.95745221    -0.78600
O1338       O  0.92726374  0.73104303  0.92733297    -0.66200
Ni1339     Ni  0.54763761  0.72463726  0.12324451     1.34900
C1340       C  0.92462528  0.71114605  0.96150545     0.84900
O1341       O  0.97704933  0.77726442  0.12539357    -0.79100
O1342       O  0.52097231  0.74997456  0.17450551    -0.89400
C1343       C  0.92966316  0.79957520  0.99864110     0.84500
O1344       O  0.58256593  0.75346441  0.09915796    -0.67600
O1345       O  0.99576661  0.73805717  0.86521285    -0.86900
C1346       C  0.57622296  0.77651005  0.07543233     0.85300
C1347       C  0.49540843  0.77032907  0.17100122     1.06900
H1348       H  0.02498717  0.76197058  0.96491465     0.38700
O1349       O  0.99900351  0.75379867  0.97547885    -1.09600
O1350       O  0.95451710  0.70421307  0.99453502    -0.66200
Ni1351     Ni  0.51190444  0.71678821  0.99527708     1.26300
O1352       O  0.54113764  0.78368915  0.05436003    -0.66400
O1353       O  0.51667659  0.70324834  0.92060204    -0.78700
C1354       C  0.56880977  0.68290066  0.03697364     0.84700
O1355       O  0.53144587  0.68177382  0.01946431    -0.65900
Ni1356     Ni  0.96291704  0.76095388  0.91415496     1.27400
Ni1357     Ni  0.98701749  0.76613874  0.04975569     1.26100
H1358       H  0.48091990  0.72095448  0.08489723     0.39300
C1359       C  0.00289002  0.90214407  0.38508641     0.45700
H1360       H  0.50293684  0.92476440  0.37807126    -0.03400
C1361       C  0.00002316  0.84934749  0.40191889     0.45700
H1362       H  0.99874214  0.82684111  0.41042912    -0.03400
C1363       C  0.00020933  0.88530246  0.32956923    -0.17100
C1364       C  0.54161280  0.89128199  0.41737772    -0.16800
C1365       C  0.96587212  0.89263967  0.41943161    -0.17200
C1366       C  0.49623733  0.85685649  0.33934641    -0.17200
C1367       C  0.54053682  0.86300461  0.42345461    -0.16700
C1368       C  0.96451553  0.86496298  0.42902132    -0.17100
O1369       O  0.83528619  0.97136280  0.53829004    -0.80700
O1370       O  0.71272539  0.56537570  0.49276071    -0.65400
O1371       O  0.75663045  0.99547002  0.53239783    -1.12000
C1372       C  0.74718944  0.97509469  0.33995663     1.06200
O1373       O  0.66660622  0.54791427  0.43271945    -0.78600
O1374       O  0.66365122  0.99307448  0.42845750    -0.66200
Ni1375     Ni  0.79936510  0.99084695  0.58727513     1.34900
C1376       C  0.67542082  0.96986254  0.44751081     0.84900
O1377       O  0.73171944  0.54256199  0.59213954    -0.79100
O1378       O  0.76767493  0.51048757  0.64118709    -0.89400
C1379       C  0.67709011  0.56562714  0.46937038     0.84500
O1380       O  0.83001773  0.52337207  0.57229941    -0.67600
O1381       O  0.71668255  0.99202943  0.34062761    -0.86900
C1382       C  0.82401281  0.54442927  0.54179337     0.85300
C1383       C  0.74642001  0.53269263  0.63801712     1.06900
H1384       H  0.76363082  0.52981287  0.42129402     0.38700
O1385       O  0.74228214  0.51905041  0.43873489    -1.09600
O1386       O  0.71344664  0.96401131  0.45770020    -0.66200
Ni1387     Ni  0.76539767  0.98396371  0.45703707     1.26300
O1388       O  0.79069410  0.54866479  0.51328878    -0.66400
O1389       O  0.77302503  0.97288552  0.38061734    -0.78700
C1390       C  0.82740589  0.95278216  0.50257222     0.84700
O1391       O  0.79203667  0.95074207  0.47924197    -0.65900
Ni1392     Ni  0.69470098  0.52012588  0.38979734     1.27400
Ni1393     Ni  0.73649610  0.53116365  0.51484146     1.26100
H1394       H  0.73330283  0.98536362  0.54657810     0.39300
C1395       C  0.75179195  0.84661026  0.11584195     0.45700
H1396       H  0.75528871  0.82388035  0.12000144    -0.03400
C1397       C  0.74391805  0.89953071  0.10395914     0.45700
H1398       H  0.74128214  0.92226722  0.09957372    -0.03400
C1399       C  0.75305005  0.86217042  0.17206331    -0.17100
C1400       C  0.78605383  0.85932960  0.08152109    -0.16800
C1401       C  0.71077732  0.85528822  0.08675739    -0.17200
C1402       C  0.74828435  0.89052739  0.16576604    -0.17200
C1403       C  0.78178830  0.88718228  0.07489655    -0.16700
C1404       C  0.70670227  0.88345960  0.07925686    -0.17100
O1405       O  0.67048257  0.71822795  0.43755969    -0.80700
O1406       O  0.78829886  0.81147698  0.50671384    -0.65400
O1407       O  0.74958443  0.74230723  0.45472191    -1.12000
C1408       C  0.75107279  0.71553869  0.64133427     1.06200
O1409       O  0.83312903  0.79278772  0.56670716    -0.78600
O1410       O  0.83513460  0.73948035  0.55174660    -0.66200
Ni1411     Ni  0.71024231  0.73919905  0.39459661     1.34900
C1412       C  0.82539822  0.71507886  0.53931103     0.84900
O1413       O  0.77307105  0.79243561  0.40523741    -0.79100
O1414       O  0.74508707  0.76120145  0.34656007    -0.89400
C1415       C  0.82378070  0.81108925  0.53032882     0.84500
O1416       O  0.67890885  0.77119574  0.41106544    -0.67600
O1417       O  0.78393340  0.73032612  0.64289004    -0.86900
C1418       C  0.68111891  0.79026493  0.44718165     0.85300
C1419       C  0.76260244  0.78438577  0.35644573     1.06900
H1420       H  0.73716465  0.77356400  0.57063721     0.38700
O1421       O  0.75881225  0.76329338  0.55231778    -1.09600
O1422       O  0.78794363  0.70774149  0.53097940    -0.66200
Ni1423     Ni  0.73654726  0.72908700  0.52738834     1.26300
O1424       O  0.71177669  0.79337686  0.48080687    -0.66400
O1425       O  0.72464649  0.71706868  0.60148253    -0.78700
C1426       C  0.67546582  0.70051093  0.47638821     0.84700
O1427       O  0.71073624  0.69695889  0.49923739    -0.65900
Ni1428     Ni  0.80552907  0.76203482  0.60167297     1.27400
Ni1429     Ni  0.76700472  0.77771935  0.47902427     1.26100
H1430       H  0.77413574  0.73275191  0.44232251     0.39300
C1431       C  0.74109791  0.65018172  0.88184057     0.45700
H1432       H  0.73429618  0.67255794  0.88027916    -0.03400
C1433       C  0.75342144  0.59729956  0.88689036     0.45700
H1434       H  0.75787872  0.57457661  0.88886814    -0.03400
C1435       C  0.74195784  0.63610911  0.82350129    -0.17100
C1436       C  0.78320749  0.64229687  0.91023896    -0.16800
C1437       C  0.70786404  0.63496775  0.91516749    -0.17200
C1438       C  0.74787925  0.60786092  0.82674092    -0.17200
C1439       C  0.78986416  0.61401229  0.91219745    -0.16700
C1440       C  0.71480326  0.60712709  0.91790312    -0.17100
C1441       C  0.74562139  0.69399527  0.68512810     0.00000
C1442       C  0.77668952  0.67391448  0.69182906    -0.11800
C1443       C  0.77510854  0.65392909  0.73413291     0.02300
C1444       C  0.74101024  0.65308436  0.77076888     0.00000
C1445       C  0.70885151  0.67261997  0.76245904    -0.11800
C1446       C  0.71094570  0.69292014  0.72019627     0.02200
H1447       H  0.80319582  0.67431354  0.66464505     0.15100
H1448       H  0.68293300  0.67283298  0.79074334     0.15100
C1449       C  0.67878358  0.71364268  0.71595962     0.36800
C1450       C  0.81143132  0.63683097  0.74149643     0.36700
N1451       N  0.65316993  0.73037978  0.71215746    -0.43600
N1452       N  0.84183269  0.62412899  0.74483567    -0.43500
C1453       C  0.75993544  0.84567946  0.22474043     0.00000
C1454       C  0.79006133  0.82429235  0.22418441    -0.11800
C1455       C  0.79212237  0.80390059  0.26613615     0.02300
C1456       C  0.76477066  0.80520733  0.31111556     0.00000
C1457       C  0.73663959  0.82727514  0.31355461    -0.11800
C1458       C  0.73302557  0.84679988  0.27063337     0.02200
H1459       H  0.81099664  0.82272413  0.18939683     0.15100
H1460       H  0.71604863  0.82866999  0.34870357     0.15100
C1461       C  0.69866916  0.86567077  0.27368750     0.36800
C1462       C  0.82207825  0.78183781  0.26183247     0.36700
N1463       N  0.67028641  0.87999815  0.27924846    -0.43600
N1464       N  0.84612734  0.76415226  0.25809792    -0.43500
C1465       C  0.74837030  0.91204369  0.21097674     0.00000
C1466       C  0.78599770  0.92073501  0.23585649    -0.11800
C1467       C  0.78701700  0.94303501  0.27396095     0.02300
C1468       C  0.74971940  0.95541199  0.29174682     0.00000
C1469       C  0.71271301  0.94770197  0.26448703    -0.11800
C1470       C  0.71213158  0.92746343  0.22276178     0.02200
H1471       H  0.81479152  0.91127036  0.22302444     0.15100
H1472       H  0.68374870  0.95756461  0.27575797     0.15100
C1473       C  0.67314876  0.92288024  0.19400244     0.36800
C1474       C  0.82617828  0.95577732  0.28748985     0.36700
N1475       N  0.64085219  0.92002864  0.17318787    -0.43600
N1476       N  0.85696408  0.96717150  0.29688184    -0.43500
C1477       C  0.74708295  0.58797256  0.77881410     0.00000
C1478       C  0.70934959  0.58255924  0.75025751    -0.11800
C1479       C  0.70728959  0.56258846  0.70729235     0.02300
C1480       C  0.74369456  0.54938056  0.68973778     0.00000
C1481       C  0.78033031  0.55328803  0.72072554    -0.11800
C1482       C  0.78187837  0.57130604  0.76611458     0.02200
H1483       H  0.68127875  0.59287525  0.76349490     0.15100
H1484       H  0.80829476  0.54227849  0.70904938     0.15100
C1485       C  0.82000246  0.57148027  0.79817697     0.36800
C1486       C  0.66769825  0.55292010  0.68674280     0.36700
N1487       N  0.85174717  0.57000123  0.82112108    -0.43600
N1488       N  0.63636182  0.54411752  0.67083843    -0.43500
C1489       C  0.57803822  0.84574540  0.43185746     0.00000
C1490       C  0.59174118  0.83801554  0.48558146    -0.11800
C1491       C  0.62638882  0.82051516  0.49269176     0.02300
C1492       C  0.64703047  0.81051990  0.44528013     0.00000
C1493       C  0.63387292  0.81913702  0.39208081    -0.11800
C1494       C  0.60083088  0.83721426  0.38511517     0.02200
H1495       H  0.57564020  0.84570577  0.52168394     0.15100
H1496       H  0.64983606  0.81189331  0.35535706     0.15100
C1497       C  0.59344292  0.84859712  0.33000396     0.36800
C1498       C  0.63877865  0.81204407  0.54825736     0.36700
N1499       N  0.58755904  0.85734853  0.28561691    -0.43600
N1500       N  0.64866244  0.80518227  0.59280948    -0.43500
C1501       C  0.92876167  0.85133541  0.45675877     0.00000
C1502       C  0.88885943  0.85492052  0.43358670    -0.11800
C1503       C  0.85362833  0.84479888  0.45984383     0.02300
C1504       C  0.85784219  0.82904195  0.50939969     0.00000
C1505       C  0.89794240  0.82608212  0.53335933    -0.11800
C1506       C  0.93305369  0.83704012  0.50764326     0.02200
H1507       H  0.88509379  0.86589106  0.39456797     0.15100
H1508       H  0.90229280  0.81430356  0.57149876     0.15100
C1509       C  0.97298711  0.83309213  0.53440198     0.36800
C1510       C  0.81389882  0.85095144  0.43417609     0.36700
N1511       N  0.00458386  0.82949814  0.55684089    -0.43600
N1512       N  0.78217918  0.85621592  0.41349809    -0.43500
C1513       C  0.93315103  0.91113275  0.43946729     0.00000
C1514       C  0.92907025  0.91420446  0.49723523    -0.11800
C1515       C  0.89422776  0.92710795  0.51911368     0.02300
C1516       C  0.86210703  0.93613970  0.48272520     0.00000
C1517       C  0.86585391  0.93246141  0.42511360    -0.11800
C1518       C  0.90143057  0.92052411  0.40315851     0.02200
H1519       H  0.95292452  0.90600987  0.52520080     0.15100
H1520       H  0.84121024  0.93939163  0.39720599     0.15100
C1521       C  0.90298962  0.91609029  0.34379717     0.36800
C1522       C  0.89171433  0.93014938  0.57891956     0.36700
N1523       N  0.90308673  0.91265694  0.29607317    -0.43600
N1524       N  0.88977040  0.93269283  0.62682006    -0.43500
C1525       C  0.64346541  0.94808124  0.45304356     0.00000
C1526       C  0.60257096  0.95544555  0.46593874    -0.11800
C1527       C  0.56965532  0.93675540  0.45889147     0.02300
C1528       C  0.57688473  0.90998210  0.43675069     0.00000
C1529       C  0.61871465  0.90238384  0.42833277    -0.11800
C1530       C  0.65152268  0.92077672  0.43639667     0.02200
H1531       H  0.59605570  0.97629314  0.47987343     0.15100
H1532       H  0.62674705  0.88330140  0.40921000     0.15100
C1533       C  0.69243227  0.91195395  0.41989434     0.36800
C1534       C  0.52912897  0.94629513  0.47476980     0.36700
N1535       N  0.72518924  0.90513995  0.40629225    -0.43600
N1536       N  0.49754403  0.95527889  0.48829987    -0.43500
C1537       C  0.60332619  0.66896474  0.00594609     0.00000
C1538       C  0.64423178  0.67804121  0.01655670    -0.11800
C1539       C  0.67793168  0.66852264  0.98560142     0.02300
C1540       C  0.67181137  0.64897364  0.94278604     0.00000
C1541       C  0.63099875  0.64010485  0.93115812    -0.11800
C1542       C  0.59706402  0.64959640  0.96234102     0.02200
H1543       H  0.65025149  0.69309249  0.04910257     0.15100
H1544       H  0.62577227  0.62499510  0.89850935     0.15100
C1545       C  0.55668545  0.63830933  0.94952847     0.36800
C1546       C  0.71863386  0.67847772  0.00091187     0.36700
N1547       N  0.52454403  0.62892166  0.93912669    -0.43600
N1548       N  0.75069752  0.68694597  0.01459397    -0.43500
C1549       C  0.81350313  0.66344963  0.93171338     0.00000
C1550       C  0.83768460  0.65804197  0.98035293    -0.11800
C1551       C  0.87375968  0.67331675  0.99287788     0.02300
C1552       C  0.88460148  0.69569386  0.95841870     0.00000
C1553       C  0.85640959  0.70356985  0.91579700    -0.11800
C1554       C  0.82203615  0.68779897  0.90155700     0.02200
H1555       H  0.82996853  0.64071351  0.00671736     0.15100
H1556       H  0.86235232  0.72153251  0.89019527     0.15100
C1557       C  0.79902292  0.69706337  0.85299858     0.36800
C1558       C  0.89923553  0.66503021  0.04003322     0.36700
N1559       N  0.78189768  0.70637030  0.81456741    -0.43600
N1560       N  0.91951027  0.65824886  0.07795885    -0.43500
C1561       C  0.61142058  0.79614209  0.07585421     0.00000
C1562       C  0.62012683  0.81230235  0.02868484    -0.11800
C1563       C  0.65389143  0.83068133  0.02928404     0.02300
C1564       C  0.67741974  0.83443961  0.07901550     0.00000
C1565       C  0.66875817  0.81812354  0.12542167    -0.11800
C1566       C  0.63724817  0.79871063  0.12391397     0.02200
H1567       H  0.60134250  0.81001727  0.99104742     0.15100
H1568       H  0.68666955  0.82063804  0.16378341     0.15100
C1569       C  0.63279077  0.78179184  0.17297845     0.36800
C1570       C  0.66401630  0.84518076  0.97874554     0.36700
N1571       N  0.63086624  0.76808672  0.21233226    -0.43600
N1572       N  0.67221055  0.85696341  0.93842295    -0.43500
C1573       C  0.89260150  0.81555755  0.01809890     0.00000
C1574       C  0.89643300  0.83248697  0.06574016    -0.11800
C1575       C  0.86181128  0.84610350  0.08778991     0.02300
C1576       C  0.82249852  0.84321417  0.06227361     0.00000
C1577       C  0.81793940  0.82569809  0.01644698    -0.11800
C1578       C  0.85229316  0.81224243  0.99360953     0.02200
H1579       H  0.92636470  0.83485733  0.08642747     0.15100
H1580       H  0.78740733  0.82308403  0.99751476     0.15100
C1581       C  0.84438919  0.79510731  0.94532480     0.36800
C1582       C  0.86662373  0.86249921  0.13757818     0.36700
N1583       N  0.83761438  0.78144020  0.90668192    -0.43600
N1584       N  0.86957937  0.87602309  0.17714363    -0.43500
C1585       C  0.48967257  0.78854682  0.22105475     0.00000
C1586       C  0.95741701  0.80839137  0.22203534    -0.11800
C1587       C  0.95679652  0.82921543  0.26325655     0.02300
C1588       C  0.49197875  0.83339779  0.29807733     0.00000
C1589       C  0.51927295  0.81078024  0.30347592    -0.11800
C1590       C  0.51826424  0.78850890  0.26646544     0.02200
H1591       H  0.93193939  0.80703806  0.19207553     0.15100
H1592       H  0.54084887  0.80970406  0.33817224     0.15100
C1593       C  0.54595370  0.76566075  0.27829435     0.36800
C1594       C  0.91761150  0.84206512  0.27599099     0.36700
N1595       N  0.56767123  0.74727949  0.28919838    -0.43600
N1596       N  0.88577592  0.85152692  0.28708365    -0.43500
C1597       C  0.56955938  0.66536888  0.55803123     0.00000
C1598       C  0.56753324  0.67041290  0.50025333    -0.11800
C1599       C  0.60156815  0.68152964  0.47206823     0.02300
C1600       C  0.63876086  0.68727106  0.50179748     0.00000
C1601       C  0.64017060  0.68238594  0.55948744    -0.11800
C1602       C  0.60609850  0.67220449  0.58773035     0.02200
H1603       H  0.53997148  0.66445233  0.47675727     0.15100
H1604       H  0.66811040  0.68653704  0.58327131     0.15100
C1605       C  0.61075717  0.66819787  0.64699930     0.36800
C1606       C  0.59839625  0.68513832  0.41239660     0.36700
N1607       N  0.61608735  0.66550313  0.69452937    -0.43600
N1608       N  0.59591279  0.68789887  0.36448989    -0.43500
C1609       C  0.92652238  0.66109428  0.57853885     0.00000
C1610       C  0.91151166  0.66183755  0.52289884    -0.11800
C1611       C  0.87718135  0.67853451  0.50792240     0.02300
C1612       C  0.85795407  0.69448006  0.54918871     0.00000
C1613       C  0.87261669  0.69327095  0.60411921    -0.11800
C1614       C  0.90601423  0.67677679  0.61928517     0.02200
H1615       H  0.92696356  0.64974908  0.49127292     0.15100
H1616       H  0.85784092  0.70571980  0.63588070     0.15100
C1617       C  0.91600399  0.67601634  0.67789182     0.36800
C1618       C  0.86351185  0.68001186  0.45042919     0.36700
N1619       N  0.92013882  0.67717066  0.72578916    -0.43600
N1620       N  0.85260475  0.68131064  0.40425277    -0.43500
C1621       C  0.92793778  0.59820962  0.57020825     0.00000
C1622       C  0.88884345  0.60398265  0.59326168    -0.11800
C1623       C  0.85363601  0.58846356  0.57913306     0.02300
C1624       C  0.85719617  0.56540602  0.54382687     0.00000
C1625       C  0.89598992  0.55920196  0.52115794    -0.11800
C1626       C  0.93095378  0.57558898  0.53302032     0.02200
H1627       H  0.88573229  0.62025597  0.62382438     0.15100
H1628       H  0.89917090  0.54106653  0.49503718     0.15100
C1629       C  0.96923593  0.56832567  0.50636229     0.36800
C1630       C  0.81438347  0.59591155  0.60331873     0.36700
N1631       N  0.99937258  0.56171336  0.48436415    -0.43600
N1632       N  0.78283157  0.60210567  0.62210013    -0.43500
C1633       C  0.57534918  0.60561166  0.54825085     0.00000
C1634       C  0.57369475  0.60198037  0.49023199    -0.11800
C1635       C  0.60761126  0.59066421  0.46202339     0.02300
C1636       C  0.64435351  0.58364147  0.49216277     0.00000
C1637       C  0.64666074  0.58937205  0.54932803    -0.11800
C1638       C  0.61255550  0.59978730  0.57731386     0.02200
H1639       H  0.54589285  0.60795098  0.46707329     0.15100
H1640       H  0.67448237  0.58420056  0.57325287     0.15100
C1641       C  0.61700583  0.60406308  0.63620274     0.36800
C1642       C  0.60395420  0.58668564  0.40244908     0.36700
N1643       N  0.62256523  0.60703864  0.68346696    -0.43600
N1644       N  0.60091662  0.58353683  0.35468933    -0.43500
C1645       C  0.01069585  0.65818153  0.72993376     0.00000
C1646       C  0.53017090  0.68426386  0.72804569    -0.11800
C1647       C  0.53112634  0.70225878  0.77386106     0.02300
C1648       C  0.01257016  0.69451902  0.82397777     0.00000
C1649       C  0.99283697  0.66873823  0.82662597    -0.11800
C1650       C  0.99058949  0.65104491  0.78015252     0.02200
H1651       H  0.54421649  0.69127022  0.69004569     0.15100
H1652       H  0.97648639  0.66321469  0.86420364     0.15100
C1653       C  0.96249571  0.62807146  0.78326912     0.36800
C1654       C  0.55132277  0.72859860  0.76838284     0.36700
N1655       N  0.93959184  0.60983389  0.78593538    -0.43600
N1656       N  0.56736068  0.74977525  0.76413226    -0.43500
C1657       C  0.82790737  0.59909232  0.93437382     0.00000
C1658       C  0.82174906  0.57534885  0.96680632    -0.11800
C1659       C  0.85418125  0.55666713  0.97807038     0.02300
C1660       C  0.89474697  0.56230380  0.96003322     0.00000
C1661       C  0.90202371  0.58737499  0.93265369    -0.11800
C1662       C  0.86904182  0.60529824  0.91817385     0.02200
H1663       H  0.79068350  0.57028538  0.98005322     0.15100
H1664       H  0.93269774  0.59138978  0.91660087     0.15100
C1665       C  0.87780161  0.62766099  0.88055227     0.36800
C1666       C  0.84416760  0.53064528  0.00372406     0.36700
N1667       N  0.88489201  0.64579680  0.85085686    -0.43600
N1668       N  0.83557206  0.00971199  0.02350522    -0.43500
C1669       C  0.61633514  0.55960948  0.98441054     0.00000
C1670       C  0.63979876  0.57636884  0.02038130    -0.11800
C1671       C  0.67475563  0.59016779  0.00097350     0.02300
C1672       C  0.68559758  0.58786939  0.94429875     0.00000
C1673       C  0.66415178  0.56940753  0.90971039    -0.11800
C1674       C  0.63021539  0.55483395  0.92965950     0.02200
H1675       H  0.63083989  0.57860992  0.06357864     0.15100
H1676       H  0.67328101  0.56690601  0.86662919     0.15100
C1677       C  0.61205175  0.53390038  0.89428875     0.36800
C1678       C  0.69903866  0.60643734  0.03977171     0.36700
N1679       N  0.59869643  0.51678498  0.86566583    -0.43600
N1680       N  0.71849695  0.61933918  0.07114153    -0.43500
C1681       C  0.00359879  0.54804186  0.79619368     0.00000
C1682       C  0.53306083  0.56926096  0.80264495    -0.11800
C1683       C  0.53740599  0.59022006  0.76272344     0.02300
C1684       C  0.01163198  0.59050114  0.71422227     0.00000
C1685       C  0.98360253  0.56852277  0.70669301    -0.11800
C1686       C  0.97940303  0.54756514  0.74635714     0.02200
H1687       H  0.55192960  0.57029888  0.84042904     0.15100
H1688       H  0.96296865  0.56829604  0.67052435     0.15100
C1689       C  0.94852231  0.52671256  0.73505566     0.36800
C1690       C  0.56682952  0.61164626  0.77563221     0.36700
N1691       N  0.92370222  0.51010335  0.72570960    -0.43600
N1692       N  0.59034152  0.62856419  0.78835240    -0.43500
C1693       C  0.81236609  0.90406309  0.04560339     0.00000
C1694       C  0.83335584  0.92440470  0.07591094    -0.11800
C1695       C  0.86624038  0.93851007  0.05222587     0.02300
C1696       C  0.87931090  0.93141181  0.99813266     0.00000
C1697       C  0.85651884  0.91246100  0.96636906    -0.11800
C1698       C  0.82258149  0.89909110  0.98941569     0.02200
H1699       H  0.82460147  0.92885373  0.11849427     0.15100
H1700       H  0.86488327  0.90844250  0.92346382     0.15100
C1701       C  0.79709368  0.88191063  0.95376641     0.36800
C1702       C  0.88561231  0.96032132  0.08413964     0.36700
N1703       N  0.77634924  0.86853113  0.92481610    -0.43600
N1704       N  0.90029619  0.47796752  0.11013647    -0.43500
C1705       C  0.59947707  0.92900655  0.01743467     0.00000
C1706       C  0.63926641  0.93648648  0.00070620    -0.11800
C1707       C  0.67421422  0.92096347  0.01693574     0.02300
C1708       C  0.66990867  0.89802155  0.05320814     0.00000
C1709       C  0.62951115  0.88978663  0.06673676    -0.11800
C1710       C  0.59461439  0.90420115  0.04692444     0.02200
H1711       H  0.64328806  0.95562377  0.97794035     0.15100
H1712       H  0.62478254  0.87295448  0.09551801     0.15100
C1713       C  0.55425795  0.89381544  0.06040266     0.36800
C1714       C  0.71371541  0.93001046  0.99655603     0.36700
N1715       N  0.52234808  0.88442086  0.07030547    -0.43600
N1716       N  0.74454295  0.93828231  0.97923932    -0.43500
C1717       C  0.50399377  0.90082994  0.27438584     0.00000
C1718       C  0.97663378  0.89658774  0.22876140    -0.11800
C1719       C  0.97514558  0.91456955  0.18224020     0.02300
C1720       C  0.49959616  0.93877855  0.18150984     0.00000
C1721       C  0.52814704  0.94223738  0.22559962    -0.11800
C1722       C  0.53202351  0.92317258  0.26925594     0.02200
H1723       H  0.95561924  0.87966423  0.22885599     0.15100
H1724       H  0.54991503  0.95921406  0.22451511     0.15100
C1725       C  0.56913478  0.92586699  0.30269432     0.36800
C1726       C  0.95059487  0.90643880  0.13442418     0.36700
N1727       N  0.60095820  0.92967758  0.32406806    -0.43600
N1728       N  0.93276524  0.89938539  0.09473751    -0.43500
loop_ 
_geom_bond_atom_site_label_1 
_geom_bond_atom_site_label_2 
_geom_bond_distance 
_geom_bond_site_symmetry_2 
_ccdc_geom_bond_type 
O1           Ni7   1.923       .  S
O1           C22   1.271       .  A
O2          Ni25   1.897       .  S
O2           C11   1.269   1_556  A
O3           Ni7   1.897       .  S
O3          Ni19   1.919   1_556  S
O3        Ni1321   1.888       .  S
O3           H26   0.966       .  S
C4           O13   1.279       .  A
C4          O885   1.278   1_455  A
C4          C424   1.510   1_455  S
O5          Ni24   1.924       .  S
O5           C11   1.269       .  A
O6         Ni456   1.891       .  S
O6            C8   1.267       .  A
Ni7         O442   1.932       .  S
Ni7         O444   1.898       .  S
C8           O18   1.277       .  A
C8          C409   1.471       .  S
O9          Ni25   1.914       .  S
O9          C879   1.275   1_455  A
O10        Ni439   1.932   1_545  S
O10          C15   1.279       .  A
C11         C373   1.467   1_554  S
O12        Ni439   1.898   1_545  S
O12          C14   1.268       .  A
O13        Ni456   1.925       .  S
C14          O20   1.281       .  A
C14         C364   1.484       .  S
C15         O873   1.275       .  A
C15         C385   1.500       .  S
H16          O17   0.966   1_655  S
O17         Ni25   1.922   1_554  S
O17         Ni24   1.898       .  S
O17       Ni1315   1.899   1_445  S
O18        Ni883   1.941   1_455  S
Ni19         O23   1.889   1_554  S
Ni19         O21   1.935       .  S
Ni19        O882   1.941       .  S
Ni19       O1313   1.899       .  S
O20        Ni889   1.954       .  S
O21         C868   1.278       .  A
C22          O23   1.268       .  A
C22         C400   1.458       .  S
Ni24        O438   1.891   1_545  S
Ni24        O445   1.925   1_545  S
Ni25        O884   1.954   1_455  S
Ni25       O1299   1.888   1_445  S
C27          C33   1.545       .  S
C27          C31   1.555       .  S
C27         C896   1.534       .  S
C27         H892   1.109       .  S
H28         C891   1.109       .  S
C29          C36   1.539       .  S
C29         C899   1.532       .  S
C29         C898   1.555       .  S
C29          H30   1.109       .  S
C31         C388   1.508       .  S
C31         C898   1.399       .  D
C32         C891   1.534       .  S
C32         C337   1.482       .  S
C32          C35   1.360       .  D
C33         C325   1.510       .  S
C33          C36   1.375       .  D
C34         C893   1.555       .  S
C34        C1213   1.519       .  S
C34         C895   1.399       .  D
C35         C893   1.532       .  S
C35         C301   1.487       .  S
C36         C313   1.483       .  S
O37         Ni43   1.943       .  S
O37          C58   1.278       .  A
O38         Ni61   1.906       .  S
O38          C47   1.271   1_554  A
O39         Ni43   1.890       .  S
O39         Ni55   1.911   1_554  S
O39        Ni925   1.895   1_455  S
O39          H62   0.966   1_455  S
C40          O49   1.279       .  A
C40         O921   1.271       .  A
C40         C352   1.488       .  S
O41         Ni60   1.932       .  S
O41          C47   1.272       .  A
O42         Ni60   1.885       .  S
O42          C44   1.269       .  A
Ni43         O46   1.945       .  S
Ni43         O48   1.895       .  S
C44          O54   1.280       .  A
C44         C256   1.496       .  S
O45         Ni61   1.923       .  S
O45         C915   1.278       .  A
O46          C51   1.284   1_455  A
C47         C277   1.501   1_556  S
O48          C50   1.267       .  A
O49         Ni60   1.939       .  S
C50          O56   1.278       .  A
C50         C265   1.485       .  S
C51         O909   1.278       .  A
C51         C289   1.503       .  S
H52          O53   0.966       .  S
O53         Ni61   1.923   1_556  S
O53         Ni60   1.890       .  S
O53        Ni919   1.898       .  S
O54        Ni919   1.951       .  S
Ni55         O59   1.895   1_556  S
Ni55         O57   1.915       .  S
Ni55        O918   1.951   1_455  S
Ni55        O917   1.898   1_455  S
O56        Ni925   1.947   1_455  S
O57         C904   1.271       .  A
C58          O59   1.270       .  A
C58         C241   1.506       .  S
Ni61        O920   1.947       .  S
Ni61        O903   1.895       .  S
C63          C69   1.533       .  S
C63          C67   1.563       .  S
C63         C932   1.548       .  S
C63         H928   1.109       .  S
H64         C927   1.109       .  S
C65          C72   1.523       .  S
C65         C935   1.548       .  S
C65         C934   1.546       .  S
C65          H66   1.111       .  S
C67        C1285   1.528       .  S
C67         C934   1.406       .  D
C68         C927   1.548       .  S
C68         C232   1.525       .  S
C68          C71   1.379       .  D
C69         C217   1.468       .  S
C69          C72   1.362       .  D
C70         C929   1.546   1_655  S
C70         C292   1.513       .  S
C70         C931   1.406   1_655  D
C71         C929   1.548       .  S
C71         C193   1.477       .  S
C72         C205   1.497       .  S
O73         Ni79   1.909       .  S
O73          C94   1.267       .  A
O74         Ni97   1.895       .  S
O74          C83   1.270       .  A
O75         Ni79   1.901       .  S
O75         Ni91   1.915       .  S
O75        Ni529   1.890       .  S
O75          H98   0.966       .  S
C76          O93   1.275       .  A
C76          O85   1.278       .  A
C76         C172   1.502       .  S
O77         Ni96   1.927       .  S
O77          C83   1.272       .  A
O78        Ni528   1.904       .  S
O78          C80   1.268       .  A
Ni79        O514   1.911       .  S
Ni79        O516   1.903       .  S
C80          O90   1.276       .  A
C80         C229   1.487       .  S
O81         Ni97   1.942       .  S
O81          C87   1.281       .  A
O82        Ni511   1.911   1_545  S
O82          C87   1.274       .  A
C83         C340   1.478       .  S
O84        Ni511   1.903   1_545  S
O84          C86   1.268       .  A
O85        Ni528   1.940       .  S
C86          O92   1.279       .  A
C86         C328   1.480       .  S
C87         C184   1.484       .  S
H88          O89   0.966       .  S
O89         Ni97   1.928       .  S
O89         Ni96   1.916       .  S
O89        Ni523   1.902   1_545  S
O90         Ni91   1.939       .  S
Ni91         O95   1.893       .  S
Ni91         O93   1.928       .  S
Ni91        O521   1.902       .  S
O92         Ni97   1.947       .  S
C94          O95   1.266       .  A
C94         C220   1.462       .  S
Ni96        O510   1.904   1_545  S
Ni96        O517   1.940   1_545  S
Ni97        O507   1.890   1_545  S
C99         C105   1.541       .  S
C99         C104   1.521       .  S
C99         C103   1.545       .  S
C99         H100   1.111       .  S
C101        C107   1.534       .  S
C101        C106   1.548       .  S
C101        C108   1.544       .  S
C101        H102   1.110       .  S
C103        C157   1.507       .  S
C103        C106   1.390       .  D
C104        C280   1.487       .  S
C104        C107   1.365       .  D
C105        C268   1.489       .  S
C105        C108   1.383       .  D
C106        C169   1.504       .  S
C107        C397   1.471       .  S
C108        C412   1.504       .  S
O109       Ni115   1.948       .  S
O109        C130   1.274       .  A
O110       Ni133   1.894       .  S
O110        C119   1.268       .  A
O111       Ni115   1.910       .  S
O111       Ni133   1.898       .  S
O111       Ni127   1.909       .  S
O111        H134   0.966       .  S
C112        O129   1.271       .  A
C112        O121   1.282       .  A
C112        C145   1.493       .  S
O113       Ni132   1.938       .  S
O113        C119   1.275       .  A
O114       Ni132   1.888       .  S
O114        C116   1.260       .  A
Ni115       O118   1.944       .  S
Ni115       O120   1.892       .  S
C116        O126   1.273       .  A
C116        C316   1.461       .  S
O117       Ni133   1.920       .  S
O117        C123   1.274       .  A
O118        C123   1.281       .  A
C119        C208   1.498       .  S
O120        C122   1.268       .  A
O121       Ni132   1.964       .  S
C122        O128   1.275       .  A
C122        C196   1.470       .  S
C123        C160   1.485       .  S
H124        O125   0.966       .  S
O125       Ni133   1.913       .  S
O125       Ni127   1.903       .  S
O125       Ni132   1.900       .  S
O126       Ni127   1.949       .  S
Ni127       O131   1.890       .  S
Ni127       O129   1.914       .  S
O128       Ni133   1.933       .  S
C130        O131   1.265       .  A
C130        C304   1.488       .  S
C135        C141   1.538       .  S
C135        C140   1.554       .  S
C135        C139   1.557       .  S
C135        H136   1.106       .  S
C137        C143   1.547       .  S
C137        C142   1.537       .  S
C137        C144   1.534       .  S
C137        H138   1.111       .  S
C139        C148   1.508       .  S
C139        C142   1.384       .  D
C140        C253   1.505       .  S
C140        C143   1.387       .  D
C141        C244   1.506       .  S
C141        C144   1.368       .  D
C142        C181   1.500       .  S
C143        C361   1.509       .  S
C144        C376   1.479       .  S
C145        C146   1.400       .  A
C145        C150   1.411       .  A
C146        C147   1.404       .  A
C146        H151   1.083       .  S
C147        C148   1.419       .  A
C147        C154   1.439       .  S
C148        C149   1.412       .  A
C149        C150   1.415       .  A
C149        H152   1.084       .  S
C150        C153   1.442       .  S
C153        N155   1.157       .  T
C154        N156   1.156       .  T
C157        C158   1.417       .  A
C157        C162   1.413       .  A
C158        C159   1.410       .  A
C158        H163   1.084       .  S
C159        C160   1.405       .  A
C159        C166   1.442       .  S
C160        C161   1.401       .  A
C161        C162   1.401       .  A
C161        H164   1.083       .  S
C162        C165   1.435       .  S
C165        N167   1.155       .  T
C166        N168   1.157       .  T
C169        C170   1.409       .  A
C169        C174   1.416       .  A
C170        C171   1.416       .  A
C170        H175   1.082       .  S
C171        C172   1.413       .  A
C171        C178   1.441       .  S
C172        C173   1.403       .  A
C173        C174   1.401       .  A
C173        H176   1.085       .  S
C174        C177   1.442       .  S
C177        N179   1.156       .  T
C178        N180   1.157       .  T
C181        C182   1.412       .  A
C181        C186   1.416       .  A
C182        C183   1.415       .  A
C182        H187   1.084       .  S
C183        C184   1.404       .  A
C183        C190   1.441       .  S
C184        C185   1.399       .  A
C185        C186   1.396       .  A
C185        H188   1.086       .  S
C186        C189   1.439       .  S
C189        N191   1.156       .  T
C190        N192   1.158       .  T
C193        C194   1.404       .  A
C193        C198   1.411       .  A
C194        C195   1.407       .  A
C194        H199   1.082       .  S
C195        C196   1.411       .  A
C195        C202   1.443       .  S
C196        C197   1.400       .  A
C197        C198   1.384       .  A
C197        H200   1.084       .  S
C198        C201   1.447       .  S
C201        N203   1.157       .  T
C202        N204   1.157       .  T
C205        C206   1.403       .  A
C205        C210   1.407       .  A
C206        C207   1.398       .  A
C206        H211   1.080       .  S
C207        C208   1.416       .  A
C207        C214   1.441       .  S
C208        C209   1.412       .  A
C209        C210   1.404       .  A
C209        H212   1.084       .  S
C210        C213   1.441       .  S
C213        N215   1.156       .  T
C214        N216   1.156       .  T
C217        C218   1.401       .  A
C217        C222   1.405       .  A
C218        C219   1.393       .  A
C218        H223   1.085       .  S
C219        C220   1.410       .  A
C219        C226   1.444       .  S
C220        C221   1.399       .  A
C221        C222   1.393       .  A
C221        H224   1.082       .  S
C222        C225   1.441       .  S
C225        N227   1.156       .  T
C226        N228   1.157       .  T
C229        C230   1.403       .  A
C229        C234   1.407       .  A
C230        C231   1.407       .  A
C230        H235   1.085       .  S
C231        C232   1.422       .  A
C231        C238   1.441       .  S
C232        C233   1.414       .  A
C233        C234   1.398       .  A
C233        H236   1.065       .  S
C234        C237   1.446       .  S
C237        N239   1.157       .  T
C238        N240   1.157   1_455  T
C241        C242   1.412       .  A
C241        C246   1.418   1_554  A
C242        C243   1.402   1_554  A
C242        H247   1.084       .  S
C243        C244   1.409       .  A
C243        C250   1.442   1_556  S
C244        C245   1.410       .  A
C245        C246   1.410       .  A
C245        H248   1.084       .  S
C246        C249   1.443       .  S
C249        N251   1.157       .  T
C250        N252   1.157       .  T
C253        C254   1.415       .  A
C253        C258   1.414       .  A
C254        C255   1.410       .  A
C254        H259   1.083   1_556  S
C255        C256   1.412       .  A
C255        C262   1.442   1_556  S
C256        C257   1.407       .  A
C257        C258   1.388       .  A
C257        H260   1.085       .  S
C258        C261   1.440       .  S
C261        N263   1.156       .  T
C262        N264   1.157       .  T
C265        C266   1.408       .  A
C265        C270   1.416       .  A
C266        C267   1.410       .  A
C266        H271   1.084   1_554  S
C267        C268   1.415       .  A
C267        C274   1.443   1_554  S
C268        C269   1.397       .  A
C269        C270   1.389       .  A
C269        H272   1.085       .  S
C270        C273   1.443       .  S
C273        N275   1.156       .  T
C274        N276   1.157       .  T
C277        C278   1.411       .  A
C277        C282   1.427   1_554  A
C278        C279   1.404       .  A
C278        H283   1.084       .  S
C279        C280   1.406       .  A
C279        C286   1.441       .  S
C280        C281   1.395       .  A
C281        C282   1.401   1_554  A
C281        H284   1.085   1_554  S
C282        C285   1.445       .  S
C285        N287   1.158       .  T
C286        N288   1.156       .  T
C289        C294   1.415   1_655  A
C289       C1154   1.413       .  A
C290        C291   1.413       .  A
C290       C1153   1.413       .  A
C290        H295   1.084       .  S
C291       C1156   1.413       .  A
C291        C298   1.443       .  S
C292        C293   1.407   1_655  A
C292       C1155   1.413       .  A
C293        C294   1.398       .  A
C293        H296   1.076       .  S
C294        C297   1.444       .  S
C297        N299   1.157       .  T
C298        N300   1.157       .  T
C301        C302   1.406       .  A
C301        C306   1.407       .  A
C302        C303   1.407       .  A
C302        H307   1.085       .  S
C303        C304   1.414       .  A
C303        C310   1.443       .  S
C304        C305   1.403       .  A
C305        C306   1.392       .  A
C305        H308   1.078       .  S
C306        C309   1.439       .  S
C309        N311   1.156       .  T
C310        N312   1.157       .  T
C313        C314   1.411       .  A
C313        C318   1.409       .  A
C314        C315   1.409       .  A
C314        H319   1.084       .  S
C315        C316   1.405       .  A
C315        C322   1.441       .  S
C316        C317   1.392       .  A
C317        C318   1.381       .  A
C317        H320   1.086       .  S
C318        C321   1.436       .  S
C321        N323   1.155       .  T
C322        N324   1.157       .  T
C325        C326   1.411       .  A
C325        C330   1.417       .  A
C326        C327   1.402       .  A
C326        H331   1.082       .  S
C327        C328   1.408       .  A
C327        C334   1.445       .  S
C328        C329   1.403       .  A
C329        C330   1.408       .  A
C329        H332   1.085       .  S
C330        C333   1.441       .  S
C333        N335   1.157       .  T
C334        N336   1.157       .  T
C337        C338   1.402       .  A
C337        C342   1.404       .  A
C338        C339   1.404       .  A
C338        H343   1.084       .  S
C339        C340   1.417       .  A
C339        C346   1.444       .  S
C340        C341   1.399       .  A
C341        C342   1.390       .  A
C341        H344   1.085       .  S
C342        C345   1.432       .  S
C345        N347   1.153       .  T
C346        N348   1.157       .  T
C349        C898   1.519       .  S
C349        C354   1.420       .  A
C349       C1214   1.416       .  A
C350        C351   1.403       .  A
C350       C1213   1.416       .  A
C350        H355   1.079       .  S
C351       C1216   1.402       .  A
C351        C358   1.443       .  S
C352        C353   1.407       .  A
C352       C1215   1.402       .  A
C353        C354   1.407       .  A
C353        H356   1.085       .  S
C354        C357   1.442       .  S
C357        N359   1.157       .  T
C358        N360   1.157       .  T
C361        C362   1.405       .  A
C361        C366   1.421       .  A
C362        C363   1.402       .  A
C362        H367   1.085       .  S
C363        C364   1.412       .  A
C363        C370   1.444   1_556  S
C364        C365   1.404       .  A
C365        C366   1.408       .  A
C365        H368   1.085       .  S
C366        C369   1.442       .  S
C369        N371   1.157       .  T
C370        N804   1.157       .  T
N372        C802   1.157       .  T
C373        C374   1.400   1_556  A
C373        C378   1.412       .  A
C374        C375   1.400       .  A
C374        H379   1.085       .  S
C375        C376   1.412   1_554  A
C375        C382   1.443       .  S
C376        C377   1.398       .  A
C377        C378   1.396       .  A
C377        H380   1.085       .  S
C378        C381   1.443       .  S
C381        N383   1.157       .  T
C382        N384   1.157       .  T
C385        C390   1.416       .  A
C385       C1250   1.411       .  A
C386        C387   1.404       .  A
C386       C1249   1.411       .  A
C386        H391   1.084       .  S
C387       C1252   1.418       .  A
C387        C394   1.441       .  S
C388        C389   1.411       .  A
C388       C1251   1.418       .  A
C389        C390   1.400       .  A
C389        H392   1.084       .  S
C390        C393   1.445       .  S
C393        N395   1.158       .  T
C394        N396   1.157       .  T
C397        C398   1.396       .  A
C397        C402   1.412   1_554  A
C398        C399   1.393       .  A
C398        H403   1.085       .  S
C399        C400   1.412   1_554  A
C399        C406   1.444       .  S
C400        C401   1.398       .  A
C401        C402   1.396       .  A
C401        H404   1.085       .  S
C402        C405   1.444       .  S
C405        N407   1.157       .  T
C406        N840   1.157       .  T
N408        C838   1.157       .  T
C409        C410   1.400       .  A
C409        C414   1.405       .  A
C410        C411   1.401       .  A
C410        H415   1.086   1_554  S
C411        C412   1.420       .  A
C411        C418   1.442   1_554  S
C412        C413   1.407       .  A
C413        C414   1.397       .  A
C413        H416   1.081       .  S
C414        C417   1.439       .  S
C417        N419   1.155       .  T
C418        N420   1.157       .  T
C421        C931   1.528       .  S
C421        C426   1.421       .  A
C421       C1286   1.409   1_455  A
C422        C423   1.415       .  A
C422       C1285   1.409       .  A
C422        H427   1.067       .  S
C423       C1288   1.418       .  A
C423        C430   1.438       .  S
C424        C425   1.401   1_655  A
C424       C1287   1.418       .  A
C425        C426   1.399       .  A
C425        H428   1.085       .  S
C426        C429   1.436       .  S
C429        N431   1.155       .  T
C430        N432   1.156       .  T
O433       Ni439   1.923       .  S
O433        C454   1.271       .  A
O434       Ni457   1.897       .  S
O434        C443   1.269   1_556  A
O435       Ni439   1.897       .  S
O435       Ni889   1.888   1_565  S
O435       Ni451   1.919   1_556  S
O435        H458   0.966       .  S
C436       O1317   1.278   1_455  A
C436        O445   1.279       .  A
C436        C856   1.510   1_455  S
O437       Ni456   1.924       .  S
O437        C443   1.269       .  A
O438        C440   1.267       .  A
C440        O450   1.277       .  A
C440        C841   1.471       .  S
O441       Ni457   1.914       .  S
O441       C1311   1.275   1_455  A
O442        C447   1.279       .  A
C443        C805   1.467   1_554  S
O444        C446   1.268       .  A
C446        O452   1.281       .  A
C446        C796   1.484       .  S
C447       O1305   1.275       .  A
C447        C817   1.500       .  S
H448        O449   0.966   1_655  S
O449       Ni457   1.922   1_554  S
O449       Ni883   1.899   1_455  S
O449       Ni456   1.898       .  S
O450      Ni1315   1.941   1_455  S
Ni451      O1314   1.941       .  S
Ni451       O455   1.889   1_554  S
Ni451       O453   1.935       .  S
Ni451       O881   1.899   1_565  S
O452      Ni1321   1.954       .  S
O453       C1300   1.278       .  A
C454        O455   1.268       .  A
C454        C832   1.458       .  S
Ni457      O1316   1.954   1_455  S
Ni457       O867   1.888   1_455  S
C459        C465   1.545       .  S
C459       C1328   1.534       .  S
C459        C463   1.555       .  S
C459       H1324   1.109       .  S
H460       C1323   1.109       .  S
C461       C1331   1.532       .  S
C461       C1330   1.555       .  S
C461        C468   1.539       .  S
C461        H462   1.109       .  S
C463        C820   1.508       .  S
C463       C1330   1.399       .  D
C464       C1323   1.534       .  S
C464        C769   1.482       .  S
C464        C467   1.360       .  D
C465        C757   1.510       .  S
C465        C468   1.375       .  D
C466       C1325   1.555       .  S
C466       C1645   1.519       .  S
C466       C1327   1.399       .  D
C467       C1325   1.532       .  S
C467        C733   1.487       .  S
C468        C745   1.483       .  S
O469       Ni475   1.943       .  S
O469        C490   1.278       .  A
O470       Ni493   1.906       .  S
O470        C479   1.271   1_554  A
O471       Ni475   1.890       .  S
O471      Ni1357   1.895   1_455  S
O471       Ni487   1.911   1_554  S
O471        H494   0.966   1_455  S
C472       O1353   1.271       .  A
C472        O481   1.279       .  A
C472        C784   1.488       .  S
O473       Ni492   1.932       .  S
O473        C479   1.272       .  A
O474       Ni492   1.885       .  S
O474        C476   1.269       .  A
Ni475       O478   1.945       .  S
Ni475       O480   1.895       .  S
C476        O486   1.280       .  A
C476        C688   1.496       .  S
O477       Ni493   1.923       .  S
O477       C1347   1.278       .  A
O478        C483   1.284   1_455  A
C479        C709   1.501   1_556  S
O480        C482   1.267       .  A
O481       Ni492   1.939       .  S
C482        O488   1.278       .  A
C482        C697   1.485       .  S
C483       O1341   1.278       .  A
C483        C721   1.503       .  S
H484        O485   0.966       .  S
O485       Ni493   1.923   1_556  S
O485      Ni1351   1.898       .  S
O485       Ni492   1.890       .  S
O486      Ni1351   1.951       .  S
Ni487      O1350   1.951   1_455  S
Ni487       O491   1.895   1_556  S
Ni487       O489   1.915       .  S
Ni487      O1349   1.898   1_455  S
O488      Ni1357   1.947   1_455  S
O489       C1336   1.271       .  A
C490        O491   1.270       .  A
C490        C673   1.506       .  S
Ni493      O1352   1.947       .  S
Ni493      O1335   1.895       .  S
C495        C501   1.533       .  S
C495       C1364   1.548       .  S
C495        C499   1.563       .  S
C495       H1360   1.109       .  S
H496       C1359   1.109       .  S
C497       C1367   1.548       .  S
C497       C1366   1.546       .  S
C497        C504   1.523       .  S
C497        H498   1.111       .  S
C499       C1717   1.528       .  S
C499       C1366   1.406       .  D
C500       C1359   1.548       .  S
C500        C664   1.525       .  S
C500        C503   1.379       .  D
C501        C649   1.468       .  S
C501        C504   1.362       .  D
C502       C1361   1.546   1_655  S
C502        C724   1.513       .  S
C502       C1363   1.406   1_655  D
C503       C1361   1.548       .  S
C503        C625   1.477       .  S
C504        C637   1.497       .  S
O505       Ni511   1.909       .  S
O505        C526   1.267       .  A
O506       Ni529   1.895       .  S
O506        C515   1.270       .  A
O507       Ni511   1.901       .  S
O507       Ni523   1.915       .  S
O507        H530   0.966       .  S
C508        O525   1.275       .  A
C508        O517   1.278       .  A
C508        C604   1.502       .  S
O509       Ni528   1.927       .  S
O509        C515   1.272       .  A
O510        C512   1.268       .  A
C512        O522   1.276       .  A
C512        C661   1.487       .  S
O513       Ni529   1.942       .  S
O513        C519   1.281       .  A
O514        C519   1.274       .  A
C515        C772   1.478       .  S
O516        C518   1.268       .  A
C518        O524   1.279       .  A
C518        C760   1.480       .  S
C519        C616   1.484       .  S
H520        O521   0.966       .  S
O521       Ni529   1.928       .  S
O521       Ni528   1.916       .  S
O522       Ni523   1.939       .  S
Ni523       O527   1.893       .  S
Ni523       O525   1.928       .  S
O524       Ni529   1.947       .  S
C526        O527   1.266       .  A
C526        C652   1.462       .  S
C531        C537   1.541       .  S
C531        C536   1.521       .  S
C531        C535   1.545       .  S
C531        H532   1.111       .  S
C533        C539   1.534       .  S
C533        C538   1.548       .  S
C533        C540   1.544       .  S
C533        H534   1.110       .  S
C535        C589   1.507       .  S
C535        C538   1.390       .  D
C536        C712   1.487       .  S
C536        C539   1.365       .  D
C537        C700   1.489       .  S
C537        C540   1.383       .  D
C538        C601   1.504       .  S
C539        C829   1.471       .  S
C540        C844   1.504       .  S
O541       Ni547   1.948       .  S
O541        C562   1.274       .  A
O542       Ni565   1.894       .  S
O542        C551   1.268       .  A
O543       Ni547   1.910       .  S
O543       Ni565   1.898       .  S
O543       Ni559   1.909       .  S
O543        H566   0.966       .  S
C544        O561   1.271       .  A
C544        O553   1.282       .  A
C544        C577   1.493       .  S
O545       Ni564   1.938       .  S
O545        C551   1.275       .  A
O546       Ni564   1.888       .  S
O546        C548   1.260       .  A
Ni547       O550   1.944       .  S
Ni547       O552   1.892       .  S
C548        O558   1.273       .  A
C548        C748   1.461       .  S
O549       Ni565   1.920       .  S
O549        C555   1.274       .  A
O550        C555   1.281       .  A
C551        C640   1.498       .  S
O552        C554   1.268       .  A
O553       Ni564   1.964       .  S
C554        O560   1.275       .  A
C554        C628   1.470       .  S
C555        C592   1.485       .  S
H556        O557   0.966       .  S
O557       Ni565   1.913       .  S
O557       Ni559   1.903       .  S
O557       Ni564   1.900       .  S
O558       Ni559   1.949       .  S
Ni559       O563   1.890       .  S
Ni559       O561   1.914       .  S
O560       Ni565   1.933       .  S
C562        O563   1.265       .  A
C562        C736   1.488       .  S
C567        C573   1.538       .  S
C567        C572   1.554       .  S
C567        C571   1.557       .  S
C567        H568   1.106       .  S
C569        C575   1.547       .  S
C569        C574   1.537       .  S
C569        C576   1.534       .  S
C569        H570   1.111       .  S
C571        C580   1.508       .  S
C571        C574   1.384       .  D
C572        C685   1.505       .  S
C572        C575   1.387       .  D
C573        C676   1.506       .  S
C573        C576   1.368       .  D
C574        C613   1.500       .  S
C575        C793   1.509       .  S
C576        C808   1.479       .  S
C577        C578   1.400       .  A
C577        C582   1.411       .  A
C578        C579   1.404       .  A
C578        H583   1.083       .  S
C579        C580   1.419       .  A
C579        C586   1.439       .  S
C580        C581   1.412       .  A
C581        C582   1.415       .  A
C581        H584   1.084       .  S
C582        C585   1.442       .  S
C585        N587   1.157       .  T
C586        N588   1.156       .  T
C589        C590   1.417       .  A
C589        C594   1.413       .  A
C590        C591   1.410       .  A
C590        H595   1.084       .  S
C591        C592   1.405       .  A
C591        C598   1.442       .  S
C592        C593   1.401       .  A
C593        C594   1.401       .  A
C593        H596   1.083       .  S
C594        C597   1.435       .  S
C597        N599   1.155       .  T
C598        N600   1.157       .  T
C601        C602   1.409       .  A
C601        C606   1.416       .  A
C602        C603   1.416       .  A
C602        H607   1.082       .  S
C603        C604   1.413       .  A
C603        C610   1.441       .  S
C604        C605   1.403       .  A
C605        C606   1.401       .  A
C605        H608   1.085       .  S
C606        C609   1.442       .  S
C609        N611   1.156       .  T
C610        N612   1.157       .  T
C613        C614   1.412       .  A
C613        C618   1.416       .  A
C614        C615   1.415       .  A
C614        H619   1.084       .  S
C615        C616   1.404       .  A
C615        C622   1.441       .  S
C616        C617   1.399       .  A
C617        C618   1.396       .  A
C617        H620   1.086       .  S
C618        C621   1.439       .  S
C621        N623   1.156       .  T
C622        N624   1.158       .  T
C625        C626   1.404       .  A
C625        C630   1.411       .  A
C626        C627   1.407       .  A
C626        H631   1.082       .  S
C627        C628   1.411       .  A
C627        C634   1.443       .  S
C628        C629   1.400       .  A
C629        C630   1.384       .  A
C629        H632   1.084       .  S
C630        C633   1.447       .  S
C633        N635   1.157       .  T
C634        N636   1.157       .  T
C637        C638   1.403       .  A
C637        C642   1.407       .  A
C638        C639   1.398       .  A
C638        H643   1.080       .  S
C639        C640   1.416       .  A
C639        C646   1.441       .  S
C640        C641   1.412       .  A
C641        C642   1.404       .  A
C641        H644   1.084       .  S
C642        C645   1.441       .  S
C645        N647   1.156       .  T
C646        N648   1.156       .  T
C649        C650   1.401       .  A
C649        C654   1.405       .  A
C650        C651   1.393       .  A
C650        H655   1.085       .  S
C651        C652   1.410       .  A
C651        C658   1.444       .  S
C652        C653   1.399       .  A
C653        C654   1.393       .  A
C653        H656   1.082       .  S
C654        C657   1.441       .  S
C657        N659   1.156       .  T
C658        N660   1.157       .  T
C661        C662   1.403       .  A
C661        C666   1.407       .  A
C662        C663   1.407       .  A
C662        H667   1.085       .  S
C663        C664   1.422       .  A
C663        C670   1.441       .  S
C664        C665   1.414       .  A
C665        C666   1.398       .  A
C665        H668   1.065       .  S
C666        C669   1.446       .  S
C669        N671   1.157       .  T
C670        N672   1.157   1_455  T
C673        C674   1.412       .  A
C673        C678   1.418   1_554  A
C674        C675   1.402   1_554  A
C674        H679   1.084       .  S
C675        C676   1.409       .  A
C675        C682   1.442   1_556  S
C676        C677   1.410       .  A
C677        C678   1.410       .  A
C677        H680   1.084       .  S
C678        C681   1.443       .  S
C681        N683   1.157       .  T
C682        N684   1.157       .  T
C685        C686   1.415       .  A
C685        C690   1.414       .  A
C686        C687   1.410       .  A
C686        H691   1.083   1_556  S
C687        C688   1.412       .  A
C687        C694   1.442   1_556  S
C688        C689   1.407       .  A
C689        C690   1.388       .  A
C689        H692   1.085       .  S
C690        C693   1.440       .  S
C693        N695   1.156       .  T
C694        N696   1.157       .  T
C697        C698   1.408       .  A
C697        C702   1.416       .  A
C698        C699   1.410       .  A
C698        H703   1.084   1_554  S
C699        C700   1.415       .  A
C699        C706   1.443   1_554  S
C700        C701   1.397       .  A
C701        C702   1.389       .  A
C701        H704   1.085       .  S
C702        C705   1.443       .  S
C705        N707   1.156       .  T
C706        N708   1.157       .  T
C709        C710   1.411       .  A
C709        C714   1.427   1_554  A
C710        C711   1.404       .  A
C710        H715   1.084       .  S
C711        C712   1.406       .  A
C711        C718   1.441       .  S
C712        C713   1.395       .  A
C713        C714   1.401   1_554  A
C713        H716   1.085   1_554  S
C714        C717   1.445       .  S
C717        N719   1.158       .  T
C718        N720   1.156       .  T
C721       C1586   1.413       .  A
C721        C726   1.415   1_655  A
C722       C1585   1.413       .  A
C722        C723   1.413       .  A
C722        H727   1.084       .  S
C723       C1588   1.413       .  A
C723        C730   1.443       .  S
C724       C1587   1.413       .  A
C724        C725   1.407   1_655  A
C725        C726   1.398       .  A
C725        H728   1.076       .  S
C726        C729   1.444       .  S
C729        N731   1.157       .  T
C730        N732   1.157       .  T
C733        C734   1.406       .  A
C733        C738   1.407       .  A
C734        C735   1.407       .  A
C734        H739   1.085       .  S
C735        C736   1.414       .  A
C735        C742   1.443       .  S
C736        C737   1.403       .  A
C737        C738   1.392       .  A
C737        H740   1.078       .  S
C738        C741   1.439       .  S
C741        N743   1.156       .  T
C742        N744   1.157       .  T
C745        C746   1.411       .  A
C745        C750   1.409       .  A
C746        C747   1.409       .  A
C746        H751   1.084       .  S
C747        C748   1.405       .  A
C747        C754   1.441       .  S
C748        C749   1.392       .  A
C749        C750   1.381       .  A
C749        H752   1.086       .  S
C750        C753   1.436       .  S
C753        N755   1.155       .  T
C754        N756   1.157       .  T
C757        C758   1.411       .  A
C757        C762   1.417       .  A
C758        C759   1.402       .  A
C758        H763   1.082       .  S
C759        C760   1.408       .  A
C759        C766   1.445       .  S
C760        C761   1.403       .  A
C761        C762   1.408       .  A
C761        H764   1.085       .  S
C762        C765   1.441       .  S
C765        N767   1.157       .  T
C766        N768   1.157       .  T
C769        C770   1.402       .  A
C769        C774   1.404       .  A
C770        C771   1.404       .  A
C770        H775   1.084       .  S
C771        C772   1.417       .  A
C771        C778   1.444       .  S
C772        C773   1.399       .  A
C773        C774   1.390       .  A
C773        H776   1.085       .  S
C774        C777   1.432       .  S
C777        N779   1.153       .  T
C778        N780   1.157       .  T
C781       C1330   1.519       .  S
C781       C1646   1.416       .  A
C781        C786   1.420       .  A
C782       C1645   1.416       .  A
C782        C783   1.403       .  A
C782        H787   1.079       .  S
C783       C1648   1.402       .  A
C783        C790   1.443       .  S
C784       C1647   1.402       .  A
C784        C785   1.407       .  A
C785        C786   1.407       .  A
C785        H788   1.085       .  S
C786        C789   1.442       .  S
C789        N791   1.157       .  T
C790        N792   1.157       .  T
C793        C794   1.405       .  A
C793        C798   1.421       .  A
C794        C795   1.402       .  A
C794        H799   1.085       .  S
C795        C796   1.412       .  A
C795        C802   1.444   1_556  S
C796        C797   1.404       .  A
C797        C798   1.408       .  A
C797        H800   1.085       .  S
C798        C801   1.442       .  S
C801        N803   1.157       .  T
C805        C806   1.400   1_556  A
C805        C810   1.412       .  A
C806        C807   1.400       .  A
C806        H811   1.085       .  S
C807        C808   1.412   1_554  A
C807        C814   1.443       .  S
C808        C809   1.398       .  A
C809        C810   1.396       .  A
C809        H812   1.085       .  S
C810        C813   1.443       .  S
C813        N815   1.157       .  T
C814        N816   1.157       .  T
C817       C1682   1.411       .  A
C817        C822   1.416       .  A
C818       C1681   1.411       .  A
C818        C819   1.404       .  A
C818        H823   1.084       .  S
C819       C1684   1.418       .  A
C819        C826   1.441       .  S
C820       C1683   1.418       .  A
C820        C821   1.411       .  A
C821        C822   1.400       .  A
C821        H824   1.084       .  S
C822        C825   1.445       .  S
C825        N827   1.158       .  T
C826        N828   1.157       .  T
C829        C830   1.396       .  A
C829        C834   1.412   1_554  A
C830        C831   1.393       .  A
C830        H835   1.085       .  S
C831        C832   1.412   1_554  A
C831        C838   1.444       .  S
C832        C833   1.398       .  A
C833        C834   1.396       .  A
C833        H836   1.085       .  S
C834        C837   1.444       .  S
C837        N839   1.157       .  T
C841        C842   1.400       .  A
C841        C846   1.405       .  A
C842        C843   1.401       .  A
C842        H847   1.086   1_554  S
C843        C844   1.420       .  A
C843        C850   1.442   1_554  S
C844        C845   1.407       .  A
C845        C846   1.397       .  A
C845        H848   1.081       .  S
C846        C849   1.439       .  S
C849        N851   1.155       .  T
C850        N852   1.157       .  T
C853       C1363   1.528       .  S
C853       C1718   1.409   1_455  A
C853        C858   1.421       .  A
C854       C1717   1.409       .  A
C854        C855   1.415       .  A
C854        H859   1.067       .  S
C855       C1720   1.418       .  A
C855        C862   1.438       .  S
C856       C1719   1.418       .  A
C856        C857   1.401   1_655  A
C857        C858   1.399       .  A
C857        H860   1.085       .  S
C858        C861   1.436       .  S
C861        N863   1.155       .  T
C862        N864   1.156       .  T
O865       Ni871   1.923       .  S
O865        C886   1.271       .  A
O866       Ni889   1.897       .  S
O866        C875   1.269   1_556  A
O867       Ni871   1.897       .  S
O867       Ni883   1.919   1_556  S
O867        H890   0.966   1_655  S
C868        O877   1.279       .  A
C868       C1288   1.510       .  S
O869       Ni888   1.924       .  S
O869        C875   1.269       .  A
O870      Ni1320   1.891       .  S
O870        C872   1.267       .  A
Ni871      O1306   1.932       .  S
Ni871      O1308   1.898       .  S
C872        O882   1.277       .  A
C872       C1273   1.471       .  S
O873       Ni889   1.914       .  S
O874      Ni1303   1.932   1_545  S
O874        C879   1.279       .  A
C875       C1237   1.467   1_554  S
O876      Ni1303   1.898   1_545  S
O876        C878   1.268       .  A
O877      Ni1320   1.925       .  S
C878        O884   1.281       .  A
C878       C1228   1.484       .  S
C879       C1249   1.500   1_655  S
H880        O881   0.966       .  S
O881       Ni889   1.922   1_554  S
O881       Ni888   1.898       .  S
Ni883       O887   1.889   1_554  S
Ni883       O885   1.935       .  S
C886        O887   1.268       .  A
C886       C1264   1.458       .  S
Ni888      O1302   1.891   1_545  S
Ni888      O1309   1.925   1_545  S
C891        C897   1.545   1_455  S
C891        C895   1.555       .  S
C893        C900   1.539   1_455  S
C893        H894   1.109   1_455  S
C895       C1252   1.508       .  S
C896       C1201   1.482       .  S
C896        C899   1.360       .  D
C897       C1189   1.510       .  S
C897        C900   1.375       .  D
C899       C1165   1.487       .  S
C900       C1177   1.483       .  S
O901       Ni907   1.943       .  S
O901        C922   1.278       .  A
O902       Ni925   1.906       .  S
O902        C911   1.271   1_554  A
O903       Ni907   1.890       .  S
O903       Ni919   1.911   1_554  S
O903        H926   0.966       .  S
C904        O913   1.279   1_455  A
C904       C1216   1.488       .  S
O905       Ni924   1.932       .  S
O905        C911   1.272       .  A
O906       Ni924   1.885       .  S
O906        C908   1.269       .  A
Ni907       O910   1.945       .  S
Ni907       O912   1.895       .  S
C908        O918   1.280       .  A
C908       C1120   1.496       .  S
O909       Ni925   1.923       .  S
O910        C915   1.284       .  A
C911       C1141   1.501   1_556  S
O912        C914   1.267       .  A
O913       Ni924   1.939       .  S
C914        O920   1.278       .  A
C914       C1129   1.485       .  S
C915       C1153   1.503       .  S
H916        O917   0.966   1_455  S
O917       Ni925   1.923   1_556  S
O917       Ni924   1.890       .  S
Ni919       O923   1.895   1_556  S
Ni919       O921   1.915       .  S
C922        O923   1.270       .  A
C922       C1105   1.506       .  S
C927        C933   1.533   1_455  S
C927        C931   1.563       .  S
C929        C936   1.523   1_455  S
C929        H930   1.111   1_455  S
C932       C1096   1.525       .  S
C932        C935   1.379       .  D
C933       C1081   1.468       .  S
C933        C936   1.362       .  D
C934       C1156   1.513       .  S
C935       C1057   1.477       .  S
C936       C1069   1.497       .  S
O937       Ni943   1.909       .  S
O937        C958   1.267       .  A
O938       Ni961   1.895       .  S
O938        C947   1.270       .  A
O939       Ni943   1.901       .  S
O939      Ni1393   1.890       .  S
O939       Ni955   1.915       .  S
O939        H962   0.966       .  S
C940        O957   1.275       .  A
C940        O949   1.278       .  A
C940       C1036   1.502       .  S
O941       Ni960   1.927       .  S
O941        C947   1.272       .  A
O942      Ni1392   1.904       .  S
O942        C944   1.268       .  A
Ni943      O1378   1.911       .  S
Ni943      O1380   1.903       .  S
C944        O954   1.276       .  A
C944       C1093   1.487       .  S
O945       Ni961   1.942       .  S
O945        C951   1.281       .  A
O946      Ni1375   1.911   1_545  S
O946        C951   1.274       .  A
C947       C1204   1.478       .  S
O948      Ni1375   1.903   1_545  S
O948        C950   1.268       .  A
O949      Ni1392   1.940       .  S
C950        O956   1.279       .  A
C950       C1192   1.480       .  S
C951       C1048   1.484       .  S
H952        O953   0.966       .  S
O953       Ni961   1.928       .  S
O953      Ni1387   1.902   1_545  S
O953       Ni960   1.916       .  S
O954       Ni955   1.939       .  S
Ni955       O959   1.893       .  S
Ni955       O957   1.928       .  S
Ni955      O1385   1.902       .  S
O956       Ni961   1.947       .  S
C958        O959   1.266       .  A
C958       C1084   1.462       .  S
Ni960      O1374   1.904   1_545  S
Ni960      O1381   1.940   1_545  S
Ni961      O1371   1.890   1_545  S
C963        C969   1.541       .  S
C963        C968   1.521       .  S
C963        C967   1.545       .  S
C963        H964   1.111       .  S
C965        C971   1.534       .  S
C965        C970   1.548       .  S
C965        C972   1.544       .  S
C965        H966   1.110       .  S
C967       C1021   1.507       .  S
C967        C970   1.390       .  D
C968       C1144   1.487       .  S
C968        C971   1.365       .  D
C969       C1132   1.489       .  S
C969        C972   1.383       .  D
C970       C1033   1.504       .  S
C971       C1261   1.471       .  S
C972       C1276   1.504       .  S
O973       Ni979   1.948       .  S
O973        C994   1.274       .  A
O974       Ni997   1.894       .  S
O974        C983   1.268       .  A
O975       Ni979   1.910       .  S
O975       Ni997   1.898       .  S
O975       Ni991   1.909       .  S
O975        H998   0.966       .  S
C976        O993   1.271       .  A
C976        O985   1.282       .  A
C976       C1009   1.493       .  S
O977       Ni996   1.938       .  S
O977        C983   1.275       .  A
O978       Ni996   1.888       .  S
O978        C980   1.260       .  A
Ni979       O982   1.944       .  S
Ni979       O984   1.892       .  S
C980        O990   1.273       .  A
C980       C1180   1.461       .  S
O981       Ni997   1.920       .  S
O981        C987   1.274       .  A
O982        C987   1.281       .  A
C983       C1072   1.498       .  S
O984        C986   1.268       .  A
O985       Ni996   1.964       .  S
C986        O992   1.275       .  A
C986       C1060   1.470       .  S
C987       C1024   1.485       .  S
H988        O989   0.966       .  S
O989       Ni997   1.913       .  S
O989       Ni991   1.903       .  S
O989       Ni996   1.900       .  S
O990       Ni991   1.949       .  S
Ni991       O995   1.890       .  S
Ni991       O993   1.914       .  S
O992       Ni997   1.933       .  S
C994        O995   1.265       .  A
C994       C1168   1.488       .  S
C999       C1005   1.538       .  S
C999       C1004   1.554       .  S
C999       C1003   1.557       .  S
C999       H1000   1.106       .  S
C1001      C1007   1.547       .  S
C1001      C1006   1.537       .  S
C1001      C1008   1.534       .  S
C1001      H1002   1.111       .  S
C1003      C1012   1.508       .  S
C1003      C1006   1.384       .  D
C1004      C1117   1.505       .  S
C1004      C1007   1.387       .  D
C1005      C1108   1.506       .  S
C1005      C1008   1.368       .  D
C1006      C1045   1.500       .  S
C1007      C1225   1.509       .  S
C1008      C1240   1.479       .  S
C1009      C1010   1.400       .  A
C1009      C1014   1.411       .  A
C1010      C1011   1.404       .  A
C1010      H1015   1.083       .  S
C1011      C1012   1.419       .  A
C1011      C1018   1.439       .  S
C1012      C1013   1.412       .  A
C1013      C1014   1.415       .  A
C1013      H1016   1.084       .  S
C1014      C1017   1.442       .  S
C1017      N1019   1.157       .  T
C1018      N1020   1.156       .  T
C1021      C1022   1.417       .  A
C1021      C1026   1.413       .  A
C1022      C1023   1.410       .  A
C1022      H1027   1.084       .  S
C1023      C1024   1.405       .  A
C1023      C1030   1.442       .  S
C1024      C1025   1.401       .  A
C1025      C1026   1.401       .  A
C1025      H1028   1.083       .  S
C1026      C1029   1.435       .  S
C1029      N1031   1.155       .  T
C1030      N1032   1.157       .  T
C1033      C1034   1.409       .  A
C1033      C1038   1.416       .  A
C1034      C1035   1.416       .  A
C1034      H1039   1.082       .  S
C1035      C1036   1.413       .  A
C1035      C1042   1.441       .  S
C1036      C1037   1.403       .  A
C1037      C1038   1.401       .  A
C1037      H1040   1.085       .  S
C1038      C1041   1.442       .  S
C1041      N1043   1.156       .  T
C1042      N1044   1.157       .  T
C1045      C1046   1.412       .  A
C1045      C1050   1.416       .  A
C1046      C1047   1.415       .  A
C1046      H1051   1.084       .  S
C1047      C1048   1.404       .  A
C1047      C1054   1.441       .  S
C1048      C1049   1.399       .  A
C1049      C1050   1.396       .  A
C1049      H1052   1.086       .  S
C1050      C1053   1.439       .  S
C1053      N1055   1.156       .  T
C1054      N1056   1.158       .  T
C1057      C1058   1.404       .  A
C1057      C1062   1.411       .  A
C1058      C1059   1.407       .  A
C1058      H1063   1.082       .  S
C1059      C1060   1.411       .  A
C1059      C1066   1.443       .  S
C1060      C1061   1.400       .  A
C1061      C1062   1.384       .  A
C1061      H1064   1.084       .  S
C1062      C1065   1.447       .  S
C1065      N1067   1.157       .  T
C1066      N1068   1.157       .  T
C1069      C1070   1.403       .  A
C1069      C1074   1.407       .  A
C1070      C1071   1.398       .  A
C1070      H1075   1.080       .  S
C1071      C1072   1.416       .  A
C1071      C1078   1.441       .  S
C1072      C1073   1.412       .  A
C1073      C1074   1.404       .  A
C1073      H1076   1.084       .  S
C1074      C1077   1.441       .  S
C1077      N1079   1.156   1_655  T
C1078      N1080   1.156       .  T
C1081      C1082   1.401       .  A
C1081      C1086   1.405       .  A
C1082      C1083   1.393       .  A
C1082      H1087   1.085       .  S
C1083      C1084   1.410       .  A
C1083      C1090   1.444       .  S
C1084      C1085   1.399       .  A
C1085      C1086   1.393       .  A
C1085      H1088   1.082       .  S
C1086      C1089   1.441       .  S
C1089      N1091   1.156       .  T
C1090      N1092   1.157       .  T
C1093      C1094   1.403       .  A
C1093      C1098   1.407       .  A
C1094      C1095   1.407       .  A
C1094      H1099   1.085       .  S
C1095      C1096   1.422       .  A
C1095      C1102   1.441       .  S
C1096      C1097   1.414       .  A
C1097      C1098   1.398       .  A
C1097      H1100   1.065       .  S
C1098      C1101   1.446       .  S
C1101      N1103   1.157       .  T
C1102      N1104   1.157       .  T
C1105      C1106   1.412       .  A
C1105      C1110   1.418   1_554  A
C1106      C1107   1.402   1_554  A
C1106      H1111   1.084       .  S
C1107      C1108   1.409       .  A
C1107      C1114   1.442   1_556  S
C1108      C1109   1.410       .  A
C1109      C1110   1.410       .  A
C1109      H1112   1.084       .  S
C1110      C1113   1.443       .  S
C1113      N1115   1.157       .  T
C1114      N1116   1.157       .  T
C1117      C1118   1.415       .  A
C1117      C1122   1.414       .  A
C1118      C1119   1.410       .  A
C1118      H1123   1.083   1_556  S
C1119      C1120   1.412       .  A
C1119      C1126   1.442   1_556  S
C1120      C1121   1.407       .  A
C1121      C1122   1.388       .  A
C1121      H1124   1.085       .  S
C1122      C1125   1.440       .  S
C1125      N1127   1.156       .  T
C1126      N1128   1.157       .  T
C1129      C1130   1.408       .  A
C1129      C1134   1.416       .  A
C1130      C1131   1.410       .  A
C1130      H1135   1.084   1_554  S
C1131      C1132   1.415       .  A
C1131      C1138   1.443   1_554  S
C1132      C1133   1.397       .  A
C1133      C1134   1.389       .  A
C1133      H1136   1.085       .  S
C1134      C1137   1.443       .  S
C1137      N1139   1.156       .  T
C1138      N1140   1.157       .  T
C1141      C1142   1.411       .  A
C1141      C1146   1.427   1_554  A
C1142      C1143   1.404       .  A
C1142      H1147   1.084       .  S
C1143      C1144   1.406       .  A
C1143      C1150   1.441       .  S
C1144      C1145   1.395       .  A
C1145      C1146   1.401   1_554  A
C1145      H1148   1.085   1_554  S
C1146      C1149   1.445       .  S
C1149      N1151   1.158       .  T
C1150      N1152   1.156       .  T
C1153      C1158   1.415       .  A
C1154      C1155   1.413       .  A
C1154      H1159   1.084       .  S
C1155      C1162   1.443       .  S
C1156      C1157   1.407       .  A
C1157      C1158   1.398       .  A
C1157      H1160   1.076       .  S
C1158      C1161   1.444       .  S
C1161      N1163   1.157       .  T
C1162      N1164   1.157       .  T
C1165      C1166   1.406       .  A
C1165      C1170   1.407       .  A
C1166      C1167   1.407       .  A
C1166      H1171   1.085       .  S
C1167      C1168   1.414       .  A
C1167      C1174   1.443       .  S
C1168      C1169   1.403       .  A
C1169      C1170   1.392       .  A
C1169      H1172   1.078       .  S
C1170      C1173   1.439       .  S
C1173      N1175   1.156       .  T
C1174      N1176   1.157       .  T
C1177      C1178   1.411       .  A
C1177      C1182   1.409       .  A
C1178      C1179   1.409       .  A
C1178      H1183   1.084       .  S
C1179      C1180   1.405       .  A
C1179      C1186   1.441       .  S
C1180      C1181   1.392       .  A
C1181      C1182   1.381       .  A
C1181      H1184   1.086       .  S
C1182      C1185   1.436       .  S
C1185      N1187   1.155       .  T
C1186      N1188   1.157       .  T
C1189      C1190   1.411       .  A
C1189      C1194   1.417       .  A
C1190      C1191   1.402       .  A
C1190      H1195   1.082       .  S
C1191      C1192   1.408       .  A
C1191      C1198   1.445       .  S
C1192      C1193   1.403       .  A
C1193      C1194   1.408       .  A
C1193      H1196   1.085       .  S
C1194      C1197   1.441       .  S
C1197      N1199   1.157       .  T
C1198      N1200   1.157       .  T
C1201      C1202   1.402       .  A
C1201      C1206   1.404       .  A
C1202      C1203   1.404       .  A
C1202      H1207   1.084       .  S
C1203      C1204   1.417       .  A
C1203      C1210   1.444       .  S
C1204      C1205   1.399       .  A
C1205      C1206   1.390       .  A
C1205      H1208   1.085       .  S
C1206      C1209   1.432       .  S
C1209      N1211   1.153       .  T
C1210      N1212   1.157       .  T
C1213      C1218   1.420   1_455  A
C1214      C1215   1.403       .  A
C1214      H1219   1.079       .  S
C1215      C1222   1.443       .  S
C1216      C1217   1.407   1_455  A
C1217      C1218   1.407       .  A
C1217      H1220   1.085       .  S
C1218      C1221   1.442       .  S
C1221      N1223   1.157       .  T
C1222      N1224   1.157       .  T
C1225      C1226   1.405       .  A
C1225      C1230   1.421       .  A
C1226      C1227   1.402       .  A
C1226      H1231   1.085       .  S
C1227      C1228   1.412       .  A
C1227      C1234   1.444   1_556  S
C1228      C1229   1.404       .  A
C1229      C1230   1.408       .  A
C1229      H1232   1.085       .  S
C1230      C1233   1.442       .  S
C1233      N1235   1.157       .  T
C1234      N1668   1.157       .  T
N1236      C1666   1.157       .  T
C1237      C1238   1.400   1_556  A
C1237      C1242   1.412       .  A
C1238      C1239   1.400       .  A
C1238      H1243   1.085       .  S
C1239      C1240   1.412   1_554  A
C1239      C1246   1.443       .  S
C1240      C1241   1.398       .  A
C1241      C1242   1.396       .  A
C1241      H1244   1.085       .  S
C1242      C1245   1.443       .  S
C1245      N1247   1.157       .  T
C1246      N1248   1.157       .  T
C1249      C1254   1.416   1_455  A
C1250      C1251   1.404       .  A
C1250      H1255   1.084       .  S
C1251      C1258   1.441       .  S
C1252      C1253   1.411   1_455  A
C1253      C1254   1.400       .  A
C1253      H1256   1.084       .  S
C1254      C1257   1.445       .  S
C1257      N1259   1.158       .  T
C1258      N1260   1.157       .  T
C1261      C1262   1.396       .  A
C1261      C1266   1.412   1_554  A
C1262      C1263   1.393       .  A
C1262      H1267   1.085       .  S
C1263      C1264   1.412   1_554  A
C1263      C1270   1.444       .  S
C1264      C1265   1.398       .  A
C1265      C1266   1.396       .  A
C1265      H1268   1.085       .  S
C1266      C1269   1.444       .  S
C1269      N1271   1.157       .  T
C1270      N1704   1.157       .  T
N1272      C1702   1.157       .  T
C1273      C1274   1.400       .  A
C1273      C1278   1.405       .  A
C1274      C1275   1.401       .  A
C1274      H1279   1.086   1_554  S
C1275      C1276   1.420       .  A
C1275      C1282   1.442   1_554  S
C1276      C1277   1.407       .  A
C1277      C1278   1.397       .  A
C1277      H1280   1.081       .  S
C1278      C1281   1.439       .  S
C1281      N1283   1.155       .  T
C1282      N1284   1.157       .  T
C1285      C1290   1.421       .  A
C1286      C1287   1.415       .  A
C1286      H1291   1.067       .  S
C1287      C1294   1.438       .  S
C1288      C1289   1.401       .  A
C1289      C1290   1.399       .  A
C1289      H1292   1.085       .  S
C1290      C1293   1.436       .  S
C1293      N1295   1.155       .  T
C1294      N1296   1.156       .  T
O1297     Ni1303   1.923       .  S
O1297      C1318   1.271       .  A
O1298     Ni1321   1.897       .  S
O1298      C1307   1.269   1_556  A
O1299     Ni1303   1.897       .  S
O1299     Ni1315   1.919   1_556  S
O1299      H1322   0.966   1_655  S
C1300      O1309   1.279       .  A
C1300      C1720   1.510       .  S
O1301     Ni1320   1.924       .  S
O1301      C1307   1.269       .  A
O1302      C1304   1.267       .  A
C1304      O1314   1.277       .  A
C1304      C1705   1.471       .  S
O1305     Ni1321   1.914       .  S
O1306      C1311   1.279       .  A
C1307      C1669   1.467   1_554  S
O1308      C1310   1.268       .  A
C1310      O1316   1.281       .  A
C1310      C1660   1.484       .  S
C1311      C1681   1.500   1_655  S
H1312      O1313   0.966       .  S
O1313     Ni1321   1.922   1_554  S
O1313     Ni1320   1.898       .  S
Ni1315     O1319   1.889   1_554  S
Ni1315     O1317   1.935       .  S
C1318      O1319   1.268       .  A
C1318      C1696   1.458       .  S
C1323      C1329   1.545   1_455  S
C1323      C1327   1.555       .  S
C1325      C1332   1.539   1_455  S
C1325      H1326   1.109   1_455  S
C1327      C1684   1.508       .  S
C1328      C1633   1.482       .  S
C1328      C1331   1.360       .  D
C1329      C1621   1.510       .  S
C1329      C1332   1.375       .  D
C1331      C1597   1.487       .  S
C1332      C1609   1.483       .  S
O1333     Ni1339   1.943       .  S
O1333      C1354   1.278       .  A
O1334     Ni1357   1.906       .  S
O1334      C1343   1.271   1_554  A
O1335     Ni1339   1.890       .  S
O1335     Ni1351   1.911   1_554  S
O1335      H1358   0.966       .  S
C1336      O1345   1.279   1_455  A
C1336      C1648   1.488       .  S
O1337     Ni1356   1.932       .  S
O1337      C1343   1.272       .  A
O1338     Ni1356   1.885       .  S
O1338      C1340   1.269       .  A
Ni1339     O1342   1.945       .  S
Ni1339     O1344   1.895       .  S
C1340      O1350   1.280       .  A
C1340      C1552   1.496       .  S
O1341     Ni1357   1.923       .  S
O1342      C1347   1.284       .  A
C1343      C1573   1.501   1_556  S
O1344      C1346   1.267       .  A
O1345     Ni1356   1.939       .  S
C1346      O1352   1.278       .  A
C1346      C1561   1.485       .  S
C1347      C1585   1.503       .  S
H1348      O1349   0.966   1_455  S
O1349     Ni1357   1.923   1_556  S
O1349     Ni1356   1.890       .  S
Ni1351     O1355   1.895   1_556  S
Ni1351     O1353   1.915       .  S
C1354      O1355   1.270       .  A
C1354      C1537   1.506       .  S
C1359      C1365   1.533   1_455  S
C1359      C1363   1.563       .  S
C1361      C1368   1.523   1_455  S
C1361      H1362   1.111   1_455  S
C1364      C1528   1.525       .  S
C1364      C1367   1.379       .  D
C1365      C1513   1.468       .  S
C1365      C1368   1.362       .  D
C1366      C1588   1.513       .  S
C1367      C1489   1.477       .  S
C1368      C1501   1.497       .  S
O1369     Ni1375   1.909       .  S
O1369      C1390   1.267       .  A
O1370     Ni1393   1.895       .  S
O1370      C1379   1.270       .  A
O1371     Ni1375   1.901       .  S
O1371     Ni1387   1.915       .  S
O1371      H1394   0.966       .  S
C1372      O1389   1.275       .  A
C1372      O1381   1.278       .  A
C1372      C1468   1.502       .  S
O1373     Ni1392   1.927       .  S
O1373      C1379   1.272       .  A
O1374      C1376   1.268       .  A
C1376      O1386   1.276       .  A
C1376      C1525   1.487       .  S
O1377     Ni1393   1.942       .  S
O1377      C1383   1.281       .  A
O1378      C1383   1.274       .  A
C1379      C1636   1.478       .  S
O1380      C1382   1.268       .  A
C1382      O1388   1.279       .  A
C1382      C1624   1.480       .  S
C1383      C1480   1.484       .  S
H1384      O1385   0.966       .  S
O1385     Ni1393   1.928       .  S
O1385     Ni1392   1.916       .  S
O1386     Ni1387   1.939       .  S
Ni1387     O1391   1.893       .  S
Ni1387     O1389   1.928       .  S
O1388     Ni1393   1.947       .  S
C1390      O1391   1.266       .  A
C1390      C1516   1.462       .  S
C1395      C1401   1.541       .  S
C1395      C1400   1.521       .  S
C1395      C1399   1.545       .  S
C1395      H1396   1.111       .  S
C1397      C1403   1.534       .  S
C1397      C1402   1.548       .  S
C1397      C1404   1.544       .  S
C1397      H1398   1.110       .  S
C1399      C1453   1.507       .  S
C1399      C1402   1.390       .  D
C1400      C1576   1.487       .  S
C1400      C1403   1.365       .  D
C1401      C1564   1.489       .  S
C1401      C1404   1.383       .  D
C1402      C1465   1.504       .  S
C1403      C1693   1.471       .  S
C1404      C1708   1.504       .  S
O1405     Ni1411   1.948       .  S
O1405      C1426   1.274       .  A
O1406     Ni1429   1.894       .  S
O1406      C1415   1.268       .  A
O1407     Ni1411   1.910       .  S
O1407     Ni1429   1.898       .  S
O1407     Ni1423   1.909       .  S
O1407      H1430   0.966       .  S
C1408      O1425   1.271       .  A
C1408      O1417   1.282       .  A
C1408      C1441   1.493       .  S
O1409     Ni1428   1.938       .  S
O1409      C1415   1.275       .  A
O1410     Ni1428   1.888       .  S
O1410      C1412   1.260       .  A
Ni1411     O1414   1.944       .  S
Ni1411     O1416   1.892       .  S
C1412      O1422   1.273       .  A
C1412      C1612   1.461       .  S
O1413     Ni1429   1.920       .  S
O1413      C1419   1.274       .  A
O1414      C1419   1.281       .  A
C1415      C1504   1.498       .  S
O1416      C1418   1.268       .  A
O1417     Ni1428   1.964       .  S
C1418      O1424   1.275       .  A
C1418      C1492   1.470       .  S
C1419      C1456   1.485       .  S
H1420      O1421   0.966       .  S
O1421     Ni1429   1.913       .  S
O1421     Ni1423   1.903       .  S
O1421     Ni1428   1.900       .  S
O1422     Ni1423   1.949       .  S
Ni1423     O1427   1.890       .  S
Ni1423     O1425   1.914       .  S
O1424     Ni1429   1.933       .  S
C1426      O1427   1.265       .  A
C1426      C1600   1.488       .  S
C1431      C1437   1.538       .  S
C1431      C1436   1.554       .  S
C1431      C1435   1.557       .  S
C1431      H1432   1.106       .  S
C1433      C1439   1.547       .  S
C1433      C1438   1.537       .  S
C1433      C1440   1.534       .  S
C1433      H1434   1.111       .  S
C1435      C1444   1.508       .  S
C1435      C1438   1.384       .  D
C1436      C1549   1.505       .  S
C1436      C1439   1.387       .  D
C1437      C1540   1.506       .  S
C1437      C1440   1.368       .  D
C1438      C1477   1.500       .  S
C1439      C1657   1.509       .  S
C1440      C1672   1.479       .  S
C1441      C1442   1.400       .  A
C1441      C1446   1.411       .  A
C1442      C1443   1.404       .  A
C1442      H1447   1.083       .  S
C1443      C1444   1.419       .  A
C1443      C1450   1.439       .  S
C1444      C1445   1.412       .  A
C1445      C1446   1.415       .  A
C1445      H1448   1.084       .  S
C1446      C1449   1.442       .  S
C1449      N1451   1.157       .  T
C1450      N1452   1.156       .  T
C1453      C1454   1.417       .  A
C1453      C1458   1.413       .  A
C1454      C1455   1.410       .  A
C1454      H1459   1.084       .  S
C1455      C1456   1.405       .  A
C1455      C1462   1.442       .  S
C1456      C1457   1.401       .  A
C1457      C1458   1.401       .  A
C1457      H1460   1.083       .  S
C1458      C1461   1.435       .  S
C1461      N1463   1.155       .  T
C1462      N1464   1.157       .  T
C1465      C1466   1.409       .  A
C1465      C1470   1.416       .  A
C1466      C1467   1.416       .  A
C1466      H1471   1.082       .  S
C1467      C1468   1.413       .  A
C1467      C1474   1.441       .  S
C1468      C1469   1.403       .  A
C1469      C1470   1.401       .  A
C1469      H1472   1.085       .  S
C1470      C1473   1.442       .  S
C1473      N1475   1.156       .  T
C1474      N1476   1.157       .  T
C1477      C1478   1.412       .  A
C1477      C1482   1.416       .  A
C1478      C1479   1.415       .  A
C1478      H1483   1.084       .  S
C1479      C1480   1.404       .  A
C1479      C1486   1.441       .  S
C1480      C1481   1.399       .  A
C1481      C1482   1.396       .  A
C1481      H1484   1.086       .  S
C1482      C1485   1.439       .  S
C1485      N1487   1.156       .  T
C1486      N1488   1.158       .  T
C1489      C1490   1.404       .  A
C1489      C1494   1.411       .  A
C1490      C1491   1.407       .  A
C1490      H1495   1.082       .  S
C1491      C1492   1.411       .  A
C1491      C1498   1.443       .  S
C1492      C1493   1.400       .  A
C1493      C1494   1.384       .  A
C1493      H1496   1.084       .  S
C1494      C1497   1.447       .  S
C1497      N1499   1.157       .  T
C1498      N1500   1.157       .  T
C1501      C1502   1.403       .  A
C1501      C1506   1.407       .  A
C1502      C1503   1.398       .  A
C1502      H1507   1.080       .  S
C1503      C1504   1.416       .  A
C1503      C1510   1.441       .  S
C1504      C1505   1.412       .  A
C1505      C1506   1.404       .  A
C1505      H1508   1.084       .  S
C1506      C1509   1.441       .  S
C1509      N1511   1.156   1_655  T
C1510      N1512   1.156       .  T
C1513      C1514   1.401       .  A
C1513      C1518   1.405       .  A
C1514      C1515   1.393       .  A
C1514      H1519   1.085       .  S
C1515      C1516   1.410       .  A
C1515      C1522   1.444       .  S
C1516      C1517   1.399       .  A
C1517      C1518   1.393       .  A
C1517      H1520   1.082       .  S
C1518      C1521   1.441       .  S
C1521      N1523   1.156       .  T
C1522      N1524   1.157       .  T
C1525      C1526   1.403       .  A
C1525      C1530   1.407       .  A
C1526      C1527   1.407       .  A
C1526      H1531   1.085       .  S
C1527      C1528   1.422       .  A
C1527      C1534   1.441       .  S
C1528      C1529   1.414       .  A
C1529      C1530   1.398       .  A
C1529      H1532   1.065       .  S
C1530      C1533   1.446       .  S
C1533      N1535   1.157       .  T
C1534      N1536   1.157       .  T
C1537      C1538   1.412       .  A
C1537      C1542   1.418   1_554  A
C1538      C1539   1.402   1_554  A
C1538      H1543   1.084       .  S
C1539      C1540   1.409       .  A
C1539      C1546   1.442   1_556  S
C1540      C1541   1.410       .  A
C1541      C1542   1.410       .  A
C1541      H1544   1.084       .  S
C1542      C1545   1.443       .  S
C1545      N1547   1.157       .  T
C1546      N1548   1.157       .  T
C1549      C1550   1.415       .  A
C1549      C1554   1.414       .  A
C1550      C1551   1.410       .  A
C1550      H1555   1.083   1_556  S
C1551      C1552   1.412       .  A
C1551      C1558   1.442   1_556  S
C1552      C1553   1.407       .  A
C1553      C1554   1.388       .  A
C1553      H1556   1.085       .  S
C1554      C1557   1.440       .  S
C1557      N1559   1.156       .  T
C1558      N1560   1.157       .  T
C1561      C1562   1.408       .  A
C1561      C1566   1.416       .  A
C1562      C1563   1.410       .  A
C1562      H1567   1.084   1_554  S
C1563      C1564   1.415       .  A
C1563      C1570   1.443   1_554  S
C1564      C1565   1.397       .  A
C1565      C1566   1.389       .  A
C1565      H1568   1.085       .  S
C1566      C1569   1.443       .  S
C1569      N1571   1.156       .  T
C1570      N1572   1.157       .  T
C1573      C1574   1.411       .  A
C1573      C1578   1.427   1_554  A
C1574      C1575   1.404       .  A
C1574      H1579   1.084       .  S
C1575      C1576   1.406       .  A
C1575      C1582   1.441       .  S
C1576      C1577   1.395       .  A
C1577      C1578   1.401   1_554  A
C1577      H1580   1.085   1_554  S
C1578      C1581   1.445       .  S
C1581      N1583   1.158       .  T
C1582      N1584   1.156       .  T
C1585      C1590   1.415       .  A
C1586      C1587   1.413       .  A
C1586      H1591   1.084       .  S
C1587      C1594   1.443       .  S
C1588      C1589   1.407       .  A
C1589      C1590   1.398       .  A
C1589      H1592   1.076       .  S
C1590      C1593   1.444       .  S
C1593      N1595   1.157       .  T
C1594      N1596   1.157       .  T
C1597      C1598   1.406       .  A
C1597      C1602   1.407       .  A
C1598      C1599   1.407       .  A
C1598      H1603   1.085       .  S
C1599      C1600   1.414       .  A
C1599      C1606   1.443       .  S
C1600      C1601   1.403       .  A
C1601      C1602   1.392       .  A
C1601      H1604   1.078       .  S
C1602      C1605   1.439       .  S
C1605      N1607   1.156       .  T
C1606      N1608   1.157       .  T
C1609      C1610   1.411       .  A
C1609      C1614   1.409       .  A
C1610      C1611   1.409       .  A
C1610      H1615   1.084       .  S
C1611      C1612   1.405       .  A
C1611      C1618   1.441       .  S
C1612      C1613   1.392       .  A
C1613      C1614   1.381       .  A
C1613      H1616   1.086       .  S
C1614      C1617   1.436       .  S
C1617      N1619   1.155       .  T
C1618      N1620   1.157       .  T
C1621      C1622   1.411       .  A
C1621      C1626   1.417       .  A
C1622      C1623   1.402       .  A
C1622      H1627   1.082       .  S
C1623      C1624   1.408       .  A
C1623      C1630   1.445       .  S
C1624      C1625   1.403       .  A
C1625      C1626   1.408       .  A
C1625      H1628   1.085       .  S
C1626      C1629   1.441       .  S
C1629      N1631   1.157       .  T
C1630      N1632   1.157       .  T
C1633      C1634   1.402       .  A
C1633      C1638   1.404       .  A
C1634      C1635   1.404       .  A
C1634      H1639   1.084       .  S
C1635      C1636   1.417       .  A
C1635      C1642   1.444       .  S
C1636      C1637   1.399       .  A
C1637      C1638   1.390       .  A
C1637      H1640   1.085       .  S
C1638      C1641   1.432       .  S
C1641      N1643   1.153       .  T
C1642      N1644   1.157       .  T
C1645      C1650   1.420   1_455  A
C1646      C1647   1.403       .  A
C1646      H1651   1.079       .  S
C1647      C1654   1.443       .  S
C1648      C1649   1.407   1_455  A
C1649      C1650   1.407       .  A
C1649      H1652   1.085       .  S
C1650      C1653   1.442       .  S
C1653      N1655   1.157       .  T
C1654      N1656   1.157       .  T
C1657      C1658   1.405       .  A
C1657      C1662   1.421       .  A
C1658      C1659   1.402       .  A
C1658      H1663   1.085       .  S
C1659      C1660   1.412       .  A
C1659      C1666   1.444   1_556  S
C1660      C1661   1.404       .  A
C1661      C1662   1.408       .  A
C1661      H1664   1.085       .  S
C1662      C1665   1.442       .  S
C1665      N1667   1.157       .  T
C1669      C1670   1.400   1_556  A
C1669      C1674   1.412       .  A
C1670      C1671   1.400       .  A
C1670      H1675   1.085       .  S
C1671      C1672   1.412   1_554  A
C1671      C1678   1.443       .  S
C1672      C1673   1.398       .  A
C1673      C1674   1.396       .  A
C1673      H1676   1.085       .  S
C1674      C1677   1.443       .  S
C1677      N1679   1.157       .  T
C1678      N1680   1.157       .  T
C1681      C1686   1.416   1_455  A
C1682      C1683   1.404       .  A
C1682      H1687   1.084       .  S
C1683      C1690   1.441       .  S
C1684      C1685   1.411   1_455  A
C1685      C1686   1.400       .  A
C1685      H1688   1.084       .  S
C1686      C1689   1.445       .  S
C1689      N1691   1.158       .  T
C1690      N1692   1.157       .  T
C1693      C1694   1.396       .  A
C1693      C1698   1.412   1_554  A
C1694      C1695   1.393       .  A
C1694      H1699   1.085       .  S
C1695      C1696   1.412   1_554  A
C1695      C1702   1.444       .  S
C1696      C1697   1.398       .  A
C1697      C1698   1.396       .  A
C1697      H1700   1.085       .  S
C1698      C1701   1.444       .  S
C1701      N1703   1.157       .  T
C1705      C1706   1.400       .  A
C1705      C1710   1.405       .  A
C1706      C1707   1.401       .  A
C1706      H1711   1.086   1_554  S
C1707      C1708   1.420       .  A
C1707      C1714   1.442   1_554  S
C1708      C1709   1.407       .  A
C1709      C1710   1.397       .  A
C1709      H1712   1.081       .  S
C1710      C1713   1.439       .  S
C1713      N1715   1.155       .  T
C1714      N1716   1.157       .  T
C1717      C1722   1.421       .  A
C1718      C1719   1.415       .  A
C1718      H1723   1.067       .  S
C1719      C1726   1.438       .  S
C1720      C1721   1.401       .  A
C1721      C1722   1.399       .  A
C1721      H1724   1.085       .  S
C1722      C1725   1.436       .  S
C1725      N1727   1.155       .  T
C1726      N1728   1.156       .  T
