geometry optimzed in LAMMPS
_audit_creation_date              2020-11-30 
_audit_creation_method            'lammps2cif' 
_symmetry_space_group_name_H-M    'P1' 
_symmetry_Int_Tables_number       1 
_symmetry_cell_setting            triclinic 
loop_ 
_symmetry_equiv_pos_as_xyz 
  x,y,z 
_cell_length_a                    37.56607446640549 
_cell_length_b                    37.199479029225685 
_cell_length_c                    44.1356844353988 
_cell_angle_alpha                 88.54132139067087 
_cell_angle_beta                  91.35855097786565 
_cell_angle_gamma                 130.5709862651717 
loop_ 
_atom_site_label 
_atom_site_type_symbol 
_atom_site_fract_x 
_atom_site_fract_y 
_atom_site_fract_z 
_atom_site_charge 
C1          C  0.34210525  0.17228908  0.00230578    -0.02150
C2          C  0.33940100  0.17657825  0.13693131    -0.02150
C3          C  0.14833879  0.37577602  0.38676493    -0.02150
C4          C  0.14994906  0.37663236  0.25248606    -0.02150
O5          O  0.34751921  0.43648916  0.43149934    -0.74950
O6          O  0.37519887  0.00215691  0.40346482    -0.53860
C7          C  0.34163825  0.46205286  0.41612052     0.78780
O8          O  0.49312096  0.02987722  0.04160214    -0.59550
O9          O  0.02752141  0.49771837  0.03732819    -0.52580
C10         C  0.51104922  0.01288032  0.05326863     0.70790
O11         O  0.43368648  0.07740305  0.48170888    -0.74110
O12         O  0.42777111  0.08615465  0.43099213    -0.54680
C13         C  0.42106393  0.08931653  0.45896415     0.76790
O14         O  0.41135381  0.37602707  0.46917099    -0.59260
O15         O  0.48213300  0.40942567  0.49146607    -0.52380
C16         C  0.43968472  0.37359940  0.48394403     0.73390
Zr17       Zr  0.40810199  0.43351562  0.44556683     2.54710
O18         O  0.34153135  0.38155650  0.47909117    -0.79820
O19         O  0.36958758  0.37355482  0.40640889    -0.93240
Zr20       Zr  0.47256099  0.04661474  0.49485434     2.64680
O21         O  0.40206250  0.00299917  0.02543459    -0.98190
O22         O  0.01203157  0.11751841  0.02503616    -0.80250
O23         O  0.42368131  0.00515698  0.45275554    -0.83610
O24         O  0.45611167  0.47394155  0.48888063    -2.18320
O25         O  0.04617901  0.45862829  0.40650149    -0.67000
O26         O  0.06101760  0.46089392  0.45736895    -0.51570
C27         C  0.06115013  0.45018363  0.42985050     0.71770
O28         O  0.08204766  0.17305421  0.42004079    -0.59910
O29         O  0.01060774  0.13902072  0.39825959    -0.51890
C30         C  0.05300068  0.17494951  0.40580074     0.73570
O31         O  0.14514164  0.11470941  0.46192775    -0.71310
O32         O  0.11537672  0.04606973  0.48712113    -0.49980
C33         C  0.14981040  0.08727747  0.47614590     0.74950
O34         O  0.99947007  0.02226744  0.34769825    -0.66630
O35         O  0.46330301  0.05253646  0.35226717    -0.53830
C36         C  0.48125014  0.03920809  0.33617994     0.73340
Zr37       Zr  0.01640820  0.99930822  0.39375865     2.77540
O38         O  0.08686497  0.04047548  0.36338362    -0.97380
O39         O  0.47284581  0.42958327  0.36200677    -0.78200
Zr40       Zr  0.08282682  0.11357449  0.44339158     2.70070
O41         O  0.14749082  0.16033398  0.40793464    -0.79450
O42         O  0.12178958  0.17550025  0.48121704    -0.98540
Zr43       Zr  0.46076007  0.05410643  0.40861439     2.21500
Zr44       Zr  0.03008702  0.99408570  0.48074063     2.11130
O45         O  0.06619545  0.04123352  0.43552683    -2.47220
O46         O  0.03398614  0.07264473  0.40022674    -0.79240
O47         O  0.48009174  0.45205689  0.43777202    -0.71440
O48         O  0.01068458  0.09538684  0.45187127    -2.32400
O49         O  0.44345465  0.48032505  0.40081291    -2.28610
O50         O  0.04647001  0.06714706  0.48820633    -0.73200
H51         H  0.44103291  0.45386285  0.50663017     0.78800
H52         H  0.01569387  0.12383523  0.45560277     0.79880
H53         H  0.09410396  0.04634493  0.43074975     0.82110
H54         H  0.42294209  0.46409463  0.38348743     0.79720
H55         H  0.03716787  0.14364467  0.01182379     0.42750
H56         H  0.12561733  0.16175729  0.49918440     0.41720
H57         H  0.14322706  0.13663047  0.39473919     0.41400
H58         H  0.11030629  0.04397336  0.37693476     0.39330
H59         H  0.45445851  0.40254859  0.37646405     0.42470
H60         H  0.34822218  0.37677990  0.39585355     0.37250
H61         H  0.34489038  0.40308265  0.49397812     0.43370
H62         H  0.39797489  0.47566861  0.03399581     0.39780
H63         H  0.07893485  0.01696100  0.34826418     0.44700
H64         H  0.34848103  0.34310636  0.41766644     0.43420
H65         H  0.41121955  0.02356825  0.04300834     0.43560
H66         H  0.15397607  0.20003500  0.47346374     0.43920
O67         O  0.42193413  0.06971610  0.15258771    -0.74950
O68         O  0.42640504  0.08543221  0.20301386    -0.53860
C69         C  0.41405759  0.08462798  0.17537904     0.78780
O70         O  0.41295919  0.37677332  0.18088637    -0.59550
O71         O  0.47843844  0.41081660  0.15274196    -0.52580
C72         C  0.43930570  0.37473081  0.16445072     0.70790
O73         O  0.34795547  0.43460733  0.21530410    -0.74110
O74         O  0.37784993  0.00494694  0.23634400    -0.54680
C75         C  0.34364785  0.46212336  0.22821957     0.76790
O76         O  0.48968339  0.02718770  0.09746302    -0.59260
O77         O  0.02652085  0.49763360  0.10455615    -0.52380
C78         C  0.50968669  0.01206033  0.08724657     0.73390
Zr79       Zr  0.46507215  0.04296055  0.14201677     2.54710
O80         O  0.39389049  0.99344761  0.11134832    -0.79820
O81         O  0.99919837  0.11139710  0.10874364    -0.93240
Zr82       Zr  0.40856160  0.43502140  0.19754720     2.64680
O83         O  0.34187135  0.38533226  0.16314169    -0.98190
O84         O  0.37059746  0.37385678  0.23701081    -0.80250
O85         O  0.42142167  0.00489254  0.18659748    -0.83610
O86         O  0.45180301  0.47228395  0.15223450    -2.18320
O87         O  0.14146824  0.12108153  0.16962181    -0.67000
O88         O  0.11199122  0.04887876  0.15218579    -0.51570
C89         C  0.14598587  0.09281912  0.15820806     0.71770
O90         O  0.00313032  0.02651750  0.29187112    -0.59910
O91         O  0.46442510  0.05415979  0.28500542    -0.51890
C92         C  0.48267100  0.04094576  0.30219168     0.73570
O93         O  0.06317729  0.47810292  0.23632766    -0.71310
O94         O  0.06191534  0.46589510  0.18559618    -0.49980
C95         C  0.07226749  0.46465123  0.21335774     0.74950
O96         O  0.07933162  0.17625316  0.21116678    -0.66630
O97         O  0.01212673  0.14207197  0.23742808    -0.53830
C98         C  0.05238555  0.17825448  0.22693270     0.73340
Zr99       Zr  0.08029946  0.11692429  0.19140832     2.77540
O100        O  0.14572442  0.16269827  0.22708033    -0.97380
O101        O  0.11817439  0.18002965  0.15336008    -0.78200
Zr102      Zr  0.02279577  0.00768273  0.24673711     2.70070
O103        O  0.09313890  0.05181579  0.27836022    -0.79450
O104        O  0.48258293  0.43648875  0.27817244    -0.98540
Zr105      Zr  0.46218156  0.05704589  0.22845254     2.21500
Zr106      Zr  0.02758708  0.99576596  0.16072923     2.11130
O107        O  0.06792961  0.04731779  0.20304883    -2.47220
O108        O  0.03727461  0.07922165  0.23674941    -0.79240
O109        O  0.04044168  0.06652823  0.14910732    -0.71440
O110        O  0.44804234  0.48541492  0.23973911    -2.32400
O111        O  0.00629606  0.09541304  0.18295335    -2.28610
O112        O  0.48237331  0.45622227  0.20542480    -0.73200
H113        H  0.43598839  0.45090450  0.13538274     0.78800
H114        H  0.42901944  0.46987779  0.25760611     0.79880
H115        H  0.09749958  0.05499759  0.20724721     0.82110
H116        H  0.00983937  0.12303730  0.17812565     0.79720
H117        H  0.35864518  0.38343561  0.25165724     0.42750
H118        H  0.47326902  0.41137307  0.26400315     0.41720
H119        H  0.10333023  0.08388881  0.27944647     0.41400
H120        H  0.15399579  0.14269885  0.23163005     0.39330
H121        H  0.09485616  0.16699416  0.13667095     0.42470
H122        H  0.00524757  0.13607446  0.12188415     0.37250
H123        H  0.36893481  0.47095213  0.12604099     0.43370
H124        H  0.35370622  0.37928730  0.14593154     0.39780
H125        H  0.17217586  0.18949889  0.21488561     0.44700
H126        H  0.47300433  0.10214649  0.09530884     0.43420
H127        H  0.32040673  0.35444157  0.17388188     0.43560
H128        H  0.00764243  0.44182137  0.29093543     0.43920
C129        C  0.11725140  0.30843864  0.21670838    -0.20970
C130        C  0.11594908  0.32224915  0.24598791    -0.09010
C131        C  0.08891132  0.28526393  0.26824496     0.29850
C132        C  0.06571943  0.23816758  0.26120302    -0.20970
C133        C  0.06980576  0.22618736  0.23262775    -0.09020
C134        C  0.09478767  0.26153758  0.21012388     0.29860
F135        F  0.09846551  0.25093171  0.18177449    -0.19540
H136        H  0.13741762  0.33485562  0.19895123     0.18220
H137        H  0.04699262  0.21131182  0.27889330     0.18230
F138        F  0.08650152  0.29304016  0.29753960    -0.19530
C139        C  0.07567111  0.40103162  0.20833982    -0.20970
C140        C  0.09540093  0.44526750  0.21958458    -0.09010
C141        C  0.13487751  0.46882083  0.23846985     0.29850
C142        C  0.15374195  0.44769676  0.24643874    -0.20970
C143        C  0.13278255  0.40139831  0.23696128    -0.09020
C144        C  0.09280861  0.37852633  0.21736234     0.29860
F145        F  0.06732970  0.33352604  0.20788267    -0.19540
H146        H  0.04464264  0.38227452  0.19399659     0.18220
H147        H  0.18361760  0.46671850  0.26176857     0.18230
F148        F  0.15469973  0.51194043  0.24972454    -0.19530
C149        C  0.26302548  0.39494213  0.24364964    -0.20970
C150        C  0.29521968  0.44177897  0.23348446    -0.09010
C151        C  0.27953305  0.46620326  0.22569708     0.29850
C152        C  0.23207999  0.44392946  0.22856263    -0.20970
C153        C  0.19951929  0.39766794  0.24115220    -0.09020
C154        C  0.21640009  0.37332043  0.24798173     0.29860
F155        F  0.18917346  0.32997639  0.26159005    -0.19540
H156        H  0.27448547  0.37535222  0.24944669     0.18220
H157        H  0.22208376  0.46416703  0.22143855     0.18230
F158        F  0.30984816  0.01126374  0.21472716    -0.19530
C159        C  0.09877537  0.24662503  0.37369362    -0.20970
C160        C  0.07018776  0.22255234  0.39867167    -0.09010
C161        C  0.06570427  0.24706752  0.41959229     0.29850
C162        C  0.08996684  0.29547964  0.41538426    -0.20970
C163        C  0.11834020  0.32071555  0.38960017    -0.09020
C164        C  0.12301808  0.29471627  0.36925075     0.29860
F165        F  0.15306014  0.31498076  0.34585067    -0.19540
H166        H  0.10429528  0.22851559  0.35821195     0.18220
H167        H  0.08753789  0.31344517  0.43301618     0.18230
F168        F  0.03979478  0.22472291  0.44495633    -0.19530
C169        C  0.14677001  0.42973342  0.42308873    -0.20970
C170        C  0.12302701  0.39107278  0.40285070    -0.09010
C171        C  0.07443913  0.36641376  0.39808464     0.29850
C172        C  0.05433845  0.38528358  0.40749571    -0.20970
C173        C  0.08053918  0.42706562  0.42401945    -0.09020
C174        C  0.12619699  0.44792621  0.43300831     0.29860
F175        F  0.15205010  0.98769663  0.44988905    -0.19540
H176        H  0.18184102  0.44749763  0.43118320     0.18220
H177        H  0.01813582  0.36734129  0.40159155     0.18230
F178        F  0.04596375  0.32421063  0.38369456    -0.19530
C179        C  0.20869245  0.37609333  0.41700283    -0.20970
C180        C  0.19783818  0.40154279  0.40143817    -0.09010
C181        C  0.23559277  0.45079526  0.39623664     0.29850
C182        C  0.28217810  0.47073176  0.40162230    -0.20970
C183        C  0.29246887  0.44292918  0.41331593    -0.09020
C184        C  0.25485263  0.39601857  0.42257916     0.29860
F185        F  0.26212092  0.36788831  0.43582436    -0.19540
H186        H  0.18192704  0.33951005  0.42373194     0.18220
H187        H  0.31019578  0.00745077  0.39542338     0.18230
F188        F  0.22786956  0.47815432  0.38223986    -0.19530
C189        C  0.11794442  0.38077019  0.33430182    -0.20970
C190        C  0.15452892  0.38901095  0.35200593    -0.09010
C191        C  0.19409546  0.40304719  0.33545336     0.29850
C192        C  0.19430456  0.40433468  0.30414595    -0.20970
C193        C  0.15372836  0.38621937  0.28707509    -0.09020
C194        C  0.11688099  0.37838246  0.30275672     0.29860
F195        F  0.07760611  0.36420496  0.28790326    -0.19540
H196        H  0.08820273  0.37384368  0.34386369     0.18220
H197        H  0.22627441  0.41624532  0.29414992     0.18230
F198        F  0.22987177  0.40730307  0.34820212    -0.19530
C199        C  0.25780745  0.11140407  0.16167436    -0.20970
C200        C  0.28988704  0.15608979  0.14716488    -0.09010
C201        C  0.27327739  0.18004275  0.13818691     0.29850
C202        C  0.22656588  0.15875072  0.14167853    -0.20970
C203        C  0.19443582  0.11287303  0.15347242    -0.09020
C204        C  0.21037763  0.08953626  0.16406447     0.29860
F205        F  0.18030350  0.04601162  0.17729874    -0.19540
H206        H  0.26832540  0.09209886  0.17024113     0.18220
H207        H  0.21504986  0.17770879  0.13408185     0.18230
F208        F  0.30104043  0.22231691  0.12323242    -0.19530
C209        C  0.39413170  0.29106030  0.18069651    -0.20970
C210        C  0.42178999  0.32674757  0.15877475    -0.09010
C211        C  0.42752012  0.31477830  0.13067582     0.29850
C212        C  0.40287495  0.26743130  0.12373975    -0.20970
C213        C  0.37333924  0.23031073  0.14518295    -0.09020
C214        C  0.37057735  0.24383091  0.17425872     0.29860
F215        F  0.34348924  0.21089216  0.19628382    -0.19540
H216        H  0.38958348  0.29961098  0.20277407     0.18220
H217        H  0.40599153  0.26140632  0.10071516     0.18230
F218        F  0.45389800  0.34839919  0.10887523    -0.19530
C219        C  0.33467618  0.10465029  0.14117470    -0.20970
C220        C  0.35553320  0.15041435  0.15169004    -0.09010
C221        C  0.39389769  0.17138463  0.17245771     0.29850
C222        C  0.41014285  0.14795078  0.18134260    -0.20970
C223        C  0.39107815  0.10445981  0.16900057    -0.09020
C224        C  0.35282316  0.08260592  0.14900681     0.29860
F225        F  0.33335406  0.04020058  0.13668994    -0.19540
H226        H  0.30537617  0.08675497  0.12541081     0.18220
H227        H  0.44001599  0.16549328  0.19664901     0.18230
F228        F  0.41813492  0.21522198  0.18377568    -0.19530
C229        C  0.25534884  0.09706487  0.99584945    -0.20970
C230        C  0.29266557  0.14460627  0.48717522    -0.09010
C231        C  0.28134989  0.16582381  0.46675517     0.29850
C232        C  0.23492606  0.14656236  0.46319201    -0.20970
C233        C  0.19826554  0.10420019  0.47815607    -0.09020
C234        C  0.20868755  0.07789184  0.49278593     0.29860
F235        F  0.17447941  0.03503338  0.00570193    -0.19540
H236        H  0.26220353  0.07729886  0.00911827     0.18220
H237        H  0.22800241  0.16565926  0.44903674     0.18230
F238        F  0.31480796  0.20575526  0.45079736    -0.19530
C239        C  0.35251428  0.24627451  0.50769435    -0.20970
C240        C  0.37252456  0.22686158  0.49786550    -0.09010
C241        C  0.41977347  0.25944941  0.48800649     0.29850
C242        C  0.44300516  0.30806525  0.48496782    -0.20970
C243        C  0.42038040  0.32530523  0.49241491    -0.09020
C244        C  0.37543779  0.29405952  0.50460664     0.29860
F245        F  0.35303833  0.30968462  0.51300997    -0.19540
H246        H  0.31759987  0.22362632  0.01706341     0.18220
H247        H  0.47821843  0.33203972  0.47600948     0.17970
F248        F  0.44466709  0.24570775  0.48251028    -0.19530
C249        C  0.37467243  0.09331250  0.49503997    -0.20970
C250        C  0.39690160  0.10721550  0.46694377    -0.09010
C251        C  0.39681839  0.13870001  0.44863989     0.29850
C252        C  0.37802036  0.15846599  0.45972621    -0.20970
C253        C  0.36133721  0.14927068  0.48975214    -0.09020
C254        C  0.35647228  0.11288788  0.00610352     0.29860
F255        F  0.33288985  0.09432864  0.03260487    -0.19540
H256        H  0.37130225  0.06678880  0.00891381     0.18220
H257        H  0.37821527  0.18255252  0.44527294     0.18230
F258        F  0.41614965  0.15159841  0.42066964    -0.19530
C259        C  0.29856599  0.15055298  0.05283657    -0.20970
C260        C  0.33943340  0.16820623  0.03740035    -0.09010
C261        C  0.37949652  0.18541275  0.05517708     0.29850
C262        C  0.37787867  0.18460254  0.08682382    -0.20970
C263        C  0.33744444  0.16959611  0.10197409    -0.09020
C264        C  0.29620202  0.14707123  0.08397011     0.29860
F265        F  0.25229775  0.11946107  0.09531403    -0.19540
H266        H  0.26740227  0.13975216  0.04138960     0.18220
H267        H  0.40945940  0.19879337  0.09961966     0.18230
F268        F  0.42055733  0.20374758  0.04192077    -0.19530
C269        C  0.34210525  0.17228909  0.50230578    -0.02150
C270        C  0.33940099  0.17657825  0.63693131    -0.02150
C271        C  0.14833879  0.37577602  0.88676492    -0.02150
C272        C  0.14994906  0.37663236  0.75248606    -0.02150
O273        O  0.34751922  0.43648915  0.93149933    -0.74950
O274        O  0.37519889  0.00215691  0.90346482    -0.53860
C275        C  0.34163826  0.46205285  0.91612051     0.78780
O276        O  0.49312096  0.02987723  0.54160214    -0.59550
O277        O  0.02752141  0.49771838  0.53732819    -0.52580
C278        C  0.51104922  0.01288033  0.55326863     0.70790
O279        O  0.43368647  0.07740303  0.98170889    -0.74110
O280        O  0.42777112  0.08615465  0.93099214    -0.54680
C281        C  0.42106392  0.08931652  0.95896415     0.76790
O282        O  0.41135381  0.37602706  0.96917098    -0.59260
O283        O  0.48213299  0.40942566  0.99146607    -0.52380
C284        C  0.43968472  0.37359939  0.98394403     0.73390
Zr285      Zr  0.40810200  0.43351562  0.94556682     2.54710
O286        O  0.34153135  0.38155649  0.97909116    -0.79820
O287        O  0.36958760  0.37355482  0.90640888    -0.93240
Zr288      Zr  0.47256098  0.04661473  0.99485434     2.64680
O289        O  0.40206251  0.00299920  0.52543459    -0.98190
O290        O  0.01203162  0.11751844  0.52503615    -0.80250
O291        O  0.42368131  0.00515698  0.95275553    -0.83610
O292        O  0.45611167  0.47394153  0.98888062    -2.18320
O293        O  0.04617902  0.45862830  0.90650148    -0.67000
O294        O  0.06101760  0.46089392  0.95736895    -0.51570
C295        C  0.06115014  0.45018363  0.92985049     0.71770
O296        O  0.08204765  0.17305423  0.92004084    -0.59910
O297        O  0.01060776  0.13902073  0.89825960    -0.51890
C298        C  0.05300068  0.17494953  0.90580077     0.73570
O299        O  0.14514164  0.11470941  0.96192776    -0.71310
O300        O  0.11537672  0.04606972  0.98712113    -0.49980
C301        C  0.14981040  0.08727746  0.97614590     0.74950
O302        O  0.99947008  0.02226745  0.84769825    -0.66630
O303        O  0.46330302  0.05253647  0.85226718    -0.53830
C304        C  0.48125015  0.03920810  0.83617994     0.73340
Zr305      Zr  0.01640822  0.99930823  0.89375864     2.77540
O306        O  0.08686499  0.04047551  0.86338363    -0.97380
O307        O  0.47284582  0.42958328  0.86200676    -0.78200
Zr308      Zr  0.08282682  0.11357449  0.94339160     2.70070
O309        O  0.14749079  0.16033398  0.90793464    -0.79450
O310        O  0.12178961  0.17550025  0.98121705    -0.98540
Zr311      Zr  0.46076009  0.05410644  0.90861439     2.21500
Zr312      Zr  0.03008702  0.99408569  0.98074063     2.11130
O313        O  0.06619546  0.04123353  0.93552683    -2.47220
O314        O  0.03398615  0.07264474  0.90022674    -0.79240
O315        O  0.48009175  0.45205689  0.93777201    -0.71440
O316        O  0.01068457  0.09538683  0.95187128    -2.32400
O317        O  0.44345467  0.48032506  0.90081291    -2.28610
O318        O  0.04647000  0.06714704  0.98820633    -0.73200
H319        H  0.44103291  0.45386283  0.00663017     0.78800
H320        H  0.01569385  0.12383522  0.95560279     0.79880
H321        H  0.09410397  0.04634494  0.93074975     0.82110
H322        H  0.42294211  0.46409464  0.88348743     0.79720
H323        H  0.03716777  0.14364473  0.51182372     0.42750
H324        H  0.12561733  0.16175727  0.99918442     0.41720
H325        H  0.14322704  0.13663046  0.89473920     0.41400
H326        H  0.11030631  0.04397337  0.87693476     0.39330
H327        H  0.45445853  0.40254860  0.87646404     0.42470
H328        H  0.34822220  0.37677991  0.89585354     0.37250
H329        H  0.34489038  0.40308265  0.99397811     0.43370
H330        H  0.39797489  0.47566864  0.53399580     0.39780
H331        H  0.07893488  0.01696104  0.84826418     0.44700
H332        H  0.34848104  0.34310636  0.91766643     0.43420
H333        H  0.41121958  0.02356828  0.54300834     0.43560
H334        H  0.15397611  0.20003498  0.97346376     0.43920
O335        O  0.42193413  0.06971611  0.65258771    -0.74950
O336        O  0.42640503  0.08543222  0.70301386    -0.53860
C337        C  0.41405759  0.08462799  0.67537904     0.78780
O338        O  0.41295917  0.37677332  0.68088637    -0.59550
O339        O  0.47843843  0.41081660  0.65274196    -0.52580
C340        C  0.43930568  0.37473081  0.66445072     0.70790
O341        O  0.34795547  0.43460733  0.71530410    -0.74110
O342        O  0.37784992  0.00494694  0.73634400    -0.54680
C343        C  0.34364784  0.46212336  0.72821957     0.76790
O344        O  0.48968339  0.02718771  0.59746302    -0.59260
O345        O  0.02652084  0.49763361  0.60455615    -0.52380
C346        C  0.50968668  0.01206034  0.58724657     0.73390
Zr347      Zr  0.46507215  0.04296056  0.64201677     2.54710
O348        O  0.39389049  0.99344762  0.61134832    -0.79820
O349        O  0.99919834  0.11139709  0.60874364    -0.93240
Zr350      Zr  0.40856159  0.43502140  0.69754721     2.64680
O351        O  0.34187133  0.38533225  0.66314170    -0.98190
O352        O  0.37059747  0.37385680  0.73701082    -0.80250
O353        O  0.42142167  0.00489255  0.68659747    -0.83610
O354        O  0.45180300  0.47228395  0.65223450    -2.18320
O355        O  0.14146823  0.12108153  0.66962181    -0.67000
O356        O  0.11199120  0.04887875  0.65218579    -0.51570
C357        C  0.14598586  0.09281911  0.65820806     0.71770
O358        O  0.00313031  0.02651750  0.79187112    -0.59910
O359        O  0.46442510  0.05415979  0.78500542    -0.51890
C360        C  0.48267100  0.04094577  0.80219168     0.73570
O361        O  0.06317729  0.47810292  0.73632766    -0.71310
O362        O  0.06191533  0.46589510  0.68559618    -0.49980
C363        C  0.07226748  0.46465123  0.71335774     0.74950
O364        O  0.07933161  0.17625316  0.71116678    -0.66630
O365        O  0.01212673  0.14207198  0.73742808    -0.53830
C366        C  0.05238555  0.17825448  0.72693270     0.73340
Zr367      Zr  0.08029945  0.11692428  0.69140832     2.77540
O368        O  0.14572441  0.16269826  0.72708034    -0.97380
O369        O  0.11817439  0.18002965  0.65336008    -0.78200
Zr370      Zr  0.02279576  0.00768273  0.74673711     2.70070
O371        O  0.09313888  0.05181577  0.77836023    -0.79450
O372        O  0.48258292  0.43648875  0.77817244    -0.98540
Zr373      Zr  0.46218156  0.05704590  0.72845255     2.21500
Zr374      Zr  0.02758706  0.99576596  0.66072923     2.11130
O375        O  0.06792959  0.04731779  0.70304883    -2.47220
O376        O  0.03727460  0.07922165  0.73674941    -0.79240
O377        O  0.04044167  0.06652823  0.64910732    -0.71440
O378        O  0.44804234  0.48541492  0.73973911    -2.32400
O379        O  0.00629605  0.09541304  0.68295335    -2.28610
O380        O  0.48237330  0.45622227  0.70542480    -0.73200
H381        H  0.43598838  0.45090449  0.63538275     0.78800
H382        H  0.42901944  0.46987780  0.75760611     0.79880
H383        H  0.09749957  0.05499759  0.70724720     0.82110
H384        H  0.00983937  0.12303730  0.67812565     0.79720
H385        H  0.35864516  0.38343561  0.75165724     0.42750
H386        H  0.47326901  0.41137307  0.76400315     0.41720
H387        H  0.10333022  0.08388880  0.77944648     0.41400
H388        H  0.15399577  0.14269884  0.73163006     0.39330
H389        H  0.09485601  0.16699431  0.63667106     0.42470
H390        H  0.00524751  0.13607444  0.62188414     0.37250
H391        H  0.36893479  0.47095213  0.62604101     0.43370
H392        H  0.35370621  0.37928731  0.64593155     0.39780
H393        H  0.17217584  0.18949888  0.71488562     0.44700
H394        H  0.47300434  0.10214649  0.59530883     0.43420
H395        H  0.32040673  0.35444155  0.67388189     0.43560
H396        H  0.00764240  0.44182135  0.79093543     0.43920
C397        C  0.11725140  0.30843865  0.71670838    -0.20970
C398        C  0.11594907  0.32224915  0.74598791    -0.09010
C399        C  0.08891129  0.28526393  0.76824495     0.29850
C400        C  0.06571940  0.23816758  0.76120301    -0.20970
C401        C  0.06980576  0.22618736  0.73262775    -0.09020
C402        C  0.09478767  0.26153759  0.71012387     0.29860
F403        F  0.09846553  0.25093172  0.68177449    -0.19540
H404        H  0.13741763  0.33485563  0.69895123     0.18220
H405        H  0.04699257  0.21131182  0.77889328     0.18230
F406        F  0.08650144  0.29304016  0.79753957    -0.19530
C407        C  0.07567111  0.40103163  0.70833981    -0.20970
C408        C  0.09540092  0.44526750  0.71958458    -0.09010
C409        C  0.13487750  0.46882084  0.73846985     0.29850
C410        C  0.15374195  0.44769676  0.74643873    -0.20970
C411        C  0.13278254  0.40139831  0.73696127    -0.09020
C412        C  0.09280861  0.37852633  0.71736233     0.29860
F413        F  0.06732971  0.33352605  0.70788265    -0.19540
H414        H  0.04464264  0.38227453  0.69399658     0.18220
H415        H  0.18361758  0.46671850  0.76176857     0.18230
F416        F  0.15469971  0.51194043  0.74972454    -0.19530
C417        C  0.26302547  0.39494214  0.74364963    -0.20970
C418        C  0.29521967  0.44177898  0.73348446    -0.09010
C419        C  0.27953304  0.46620327  0.72569707     0.29850
C420        C  0.23207999  0.44392947  0.72856263    -0.20970
C421        C  0.19951928  0.39766794  0.74115219    -0.09020
C422        C  0.21640008  0.37332043  0.74798172     0.29860
F423        F  0.18917345  0.32997639  0.76159004    -0.19540
H424        H  0.27448546  0.37535222  0.74944668     0.18220
H425        H  0.22208376  0.46416704  0.72143855     0.18230
F426        F  0.30984815  0.01126374  0.71472715    -0.19530
C427        C  0.09877518  0.24662497  0.87369358    -0.20970
C428        C  0.07018775  0.22255235  0.89867171    -0.09010
C429        C  0.06570441  0.24706760  0.91959238     0.29850
C430        C  0.08996697  0.29547970  0.91538432    -0.20970
C431        C  0.11834018  0.32071555  0.88960017    -0.09020
C432        C  0.12301790  0.29471620  0.86925069     0.29860
F433        F  0.15305978  0.31498061  0.84585052    -0.19540
H434        H  0.10429496  0.22851547  0.85821186     0.18220
H435        H  0.08753813  0.31344530  0.93301627     0.18230
F436        F  0.03979509  0.22472306  0.94495648    -0.19530
C437        C  0.14677003  0.42973345  0.92308871    -0.20970
C438        C  0.12302702  0.39107279  0.90285070    -0.09010
C439        C  0.07443913  0.36641375  0.89808465     0.29850
C440        C  0.05433845  0.38528357  0.90749572    -0.20970
C441        C  0.08053919  0.42706562  0.92401945    -0.09020
C442        C  0.12619701  0.44792623  0.93300829     0.29860
F443        F  0.15205013  0.98769667  0.94988901    -0.19540
H444        H  0.18184105  0.44749766  0.93118316     0.18220
H445        H  0.01813581  0.36734127  0.90159157     0.18230
F446        F  0.04596376  0.32421061  0.88369457    -0.19530
C447        C  0.20869246  0.37609331  0.91700280    -0.20970
C448        C  0.19783818  0.40154278  0.90143816    -0.09010
C449        C  0.23559278  0.45079526  0.89623663     0.29850
C450        C  0.28217811  0.47073175  0.90162228    -0.20970
C451        C  0.29246888  0.44292917  0.91331590    -0.09020
C452        C  0.25485264  0.39601856  0.92257913     0.29860
F453        F  0.26212093  0.36788829  0.93582431    -0.19540
H454        H  0.18192705  0.33951003  0.92373189     0.18220
H455        H  0.31019578  0.00745077  0.89542336     0.18230
F456        F  0.22786957  0.47815432  0.88223984    -0.19530
C457        C  0.11794443  0.38077022  0.83430182    -0.20970
C458        C  0.15452893  0.38901095  0.85200592    -0.09010
C459        C  0.19409545  0.40304716  0.83545336     0.29850
C460        C  0.19430456  0.40433466  0.80414595    -0.20970
C461        C  0.15372836  0.38621937  0.78707509    -0.09020
C462        C  0.11688100  0.37838248  0.80275672     0.29860
F463        F  0.07760613  0.36420500  0.78790327    -0.19540
H464        H  0.08820274  0.37384371  0.84386370     0.18220
H465        H  0.22627439  0.41624528  0.79414992     0.18230
F466        F  0.22987173  0.40730297  0.84820212    -0.19530
C467        C  0.25780744  0.11140407  0.66167436    -0.20970
C468        C  0.28988702  0.15608979  0.64716488    -0.09010
C469        C  0.27327738  0.18004274  0.63818690     0.29850
C470        C  0.22656586  0.15875071  0.64167852    -0.20970
C471        C  0.19443581  0.11287303  0.65347242    -0.09020
C472        C  0.21037762  0.08953625  0.66406447     0.29860
F473        F  0.18030349  0.04601162  0.67729874    -0.19540
H474        H  0.26832538  0.09209886  0.67024113     0.18220
H475        H  0.21504984  0.17770878  0.63408184     0.18230
F476        F  0.30104041  0.22231690  0.62323241    -0.19530
C477        C  0.39413167  0.29106030  0.68069651    -0.20970
C478        C  0.42178998  0.32674757  0.65877475    -0.09010
C479        C  0.42752011  0.31477830  0.63067582     0.29850
C480        C  0.40287494  0.26743130  0.62373975    -0.20970
C481        C  0.37333922  0.23031073  0.64518295    -0.09020
C482        C  0.37057733  0.24383091  0.67425872     0.29860
F483        F  0.34348922  0.21089215  0.69628382    -0.19540
H484        H  0.38958345  0.29961098  0.70277407     0.18220
H485        H  0.40599152  0.26140632  0.60071517     0.18230
F486        F  0.45389800  0.34839919  0.60887523    -0.19530
C487        C  0.33467617  0.10465029  0.64117471    -0.20970
C488        C  0.35553319  0.15041435  0.65169004    -0.09010
C489        C  0.39389767  0.17138463  0.67245771     0.29850
C490        C  0.41014284  0.14795078  0.68134261    -0.20970
C491        C  0.39107815  0.10445981  0.66900057    -0.09020
C492        C  0.35282316  0.08260592  0.64900681     0.29860
F493        F  0.33335406  0.04020058  0.63668994    -0.19540
H494        H  0.30537616  0.08675497  0.62541081     0.18220
H495        H  0.44001598  0.16549328  0.69664902     0.18230
F496        F  0.41813490  0.21522197  0.68377569    -0.19530
C497        C  0.25534885  0.09706488  0.49584945    -0.20970
C498        C  0.29266557  0.14460626  0.98717522    -0.09010
C499        C  0.28134988  0.16582380  0.96675517     0.29850
C500        C  0.23492605  0.14656235  0.96319201    -0.20970
C501        C  0.19826554  0.10420018  0.97815608    -0.09020
C502        C  0.20868754  0.07789183  0.99278593     0.29860
F503        F  0.17447941  0.03503340  0.50570192    -0.19540
H504        H  0.26220353  0.07729886  0.50911826     0.18220
H505        H  0.22800240  0.16565925  0.94903674     0.18230
F506        F  0.31480796  0.20575524  0.95079736    -0.19530
C507        C  0.35251428  0.24627450  0.00769434    -0.20970
C508        C  0.37252455  0.22686157  0.99786549    -0.09010
C509        C  0.41977346  0.25944940  0.98800649     0.29850
C510        C  0.44300516  0.30806524  0.98496782    -0.20970
C511        C  0.42038040  0.32530522  0.99241491    -0.09020
C512        C  0.37543779  0.29405951  0.00460663     0.29860
F513        F  0.35303833  0.30968462  0.01300996    -0.19540
H514        H  0.31759987  0.22362632  0.51706341     0.18220
H515        H  0.47821843  0.33203971  0.97600948     0.17970
F516        F  0.44466708  0.24570774  0.98251028    -0.19530
C517        C  0.37467242  0.09331249  0.99503998    -0.20970
C518        C  0.39690159  0.10721549  0.96694377    -0.09010
C519        C  0.39681839  0.13870000  0.94863990     0.29850
C520        C  0.37802035  0.15846598  0.95972621    -0.20970
C521        C  0.36133720  0.14927067  0.98975214    -0.09020
C522        C  0.35647228  0.11288789  0.50610352     0.29860
F523        F  0.33288985  0.09432865  0.53260486    -0.19540
H524        H  0.37130226  0.06678881  0.50891380     0.18220
H525        H  0.37821526  0.18255251  0.94527294     0.18230
F526        F  0.41614965  0.15159840  0.92066964    -0.19530
C527        C  0.29856599  0.15055298  0.55283657    -0.20970
C528        C  0.33943340  0.16820623  0.53740035    -0.09010
C529        C  0.37949652  0.18541275  0.55517709     0.29850
C530        C  0.37787866  0.18460254  0.58682382    -0.20970
C531        C  0.33744444  0.16959611  0.60197409    -0.09020
C532        C  0.29620201  0.14707123  0.58397011     0.29860
F533        F  0.25229774  0.11946106  0.59531403    -0.19540
H534        H  0.26740226  0.13975216  0.54138960     0.18220
H535        H  0.40945939  0.19879337  0.59961966     0.18230
F536        F  0.42055733  0.20374759  0.54192078    -0.19530
C537        C  0.34210526  0.67228908  0.00230578    -0.02150
C538        C  0.33940101  0.67657825  0.13693131    -0.02150
C539        C  0.14833879  0.87577602  0.38676493    -0.02150
C540        C  0.14994906  0.87663236  0.25248606    -0.02150
O541        O  0.34751921  0.93648915  0.43149934    -0.74950
O542        O  0.37519888  0.50215691  0.40346482    -0.53860
C543        C  0.34163825  0.96205285  0.41612052     0.78780
O544        O  0.49312097  0.52987723  0.04160214    -0.59550
O545        O  0.02752140  0.99771836  0.03732819    -0.52580
C546        C  0.51104923  0.51288033  0.05326863     0.70790
O547        O  0.43368649  0.57740306  0.48170888    -0.74110
O548        O  0.42777112  0.58615465  0.43099213    -0.54680
C549        C  0.42106393  0.58931654  0.45896415     0.76790
O550        O  0.41135381  0.87602706  0.46917098    -0.59260
O551        O  0.48213299  0.90942567  0.49146607    -0.52380
C552        C  0.43968471  0.87359939  0.48394403     0.73390
Zr553      Zr  0.40810199  0.93351562  0.44556682     2.54710
O554        O  0.34153133  0.88155647  0.47909115    -0.79820
O555        O  0.36958760  0.87355483  0.40640887    -0.93240
Zr556      Zr  0.47256100  0.54661476  0.49485434     2.64680
O557        O  0.40206253  0.50299920  0.02543460    -0.98190
O558        O  0.01203162  0.61751843  0.02503616    -0.80250
O559        O  0.42368131  0.50515699  0.45275554    -0.83610
O560        O  0.45611166  0.97394154  0.48888062    -2.18320
O561        O  0.04617901  0.95862830  0.40650149    -0.67000
O562        O  0.06101760  0.96089392  0.45736896    -0.51570
C563        C  0.06115014  0.95018364  0.42985050     0.71770
O564        O  0.08204767  0.67305421  0.42004077    -0.59910
O565        O  0.01060774  0.63902072  0.39825959    -0.51890
C566        C  0.05300068  0.67494951  0.40580073     0.73570
O567        O  0.14514164  0.61470941  0.46192774    -0.71310
O568        O  0.11537672  0.54606973  0.48712112    -0.49980
C569        C  0.14981040  0.58727746  0.47614589     0.74950
O570        O  0.99947006  0.52226743  0.34769825    -0.66630
O571        O  0.46330301  0.55253646  0.35226717    -0.53830
C572        C  0.48125014  0.53920809  0.33617994     0.73340
Zr573      Zr  0.01640819  0.49930820  0.39375864     2.77540
O574        O  0.08686495  0.54047546  0.36338361    -0.97380
O575        O  0.47284582  0.92958328  0.36200676    -0.78200
Zr576      Zr  0.08282682  0.61357448  0.44339158     2.70070
O577        O  0.14749082  0.66033397  0.40793463    -0.79450
O578        O  0.12178958  0.67550025  0.48121703    -0.98540
Zr579      Zr  0.46076008  0.55410643  0.40861439     2.21500
Zr580      Zr  0.03008702  0.49408570  0.48074063     2.11130
O581        O  0.06619545  0.54123352  0.43552682    -2.47220
O582        O  0.03398614  0.57264472  0.40022673    -0.79240
O583        O  0.48009174  0.95205689  0.43777202    -0.71440
O584        O  0.01068458  0.59538684  0.45187126    -2.32400
O585        O  0.44345466  0.98032505  0.40081291    -2.28610
O586        O  0.04647002  0.56714706  0.48820632    -0.73200
H587        H  0.44103290  0.95386284  0.50663017     0.78800
H588        H  0.01569388  0.62383524  0.45560277     0.79880
H589        H  0.09410396  0.54634492  0.43074974     0.82110
H590        H  0.42294210  0.96409464  0.38348743     0.79720
H591        H  0.03716781  0.64364471  0.01182374     0.42750
H592        H  0.12561733  0.66175730  0.49918439     0.41720
H593        H  0.14322701  0.63663046  0.39473915     0.41400
H594        H  0.11030628  0.54397334  0.37693475     0.39330
H595        H  0.45445853  0.90254860  0.37646404     0.42470
H596        H  0.34822217  0.87677989  0.39585355     0.37250
H597        H  0.34489037  0.90308261  0.49397812     0.43370
H598        H  0.39797487  0.97566858  0.03399580     0.39780
H599        H  0.07893483  0.51696097  0.34826418     0.44700
H600        H  0.34848107  0.84310637  0.41766642     0.43420
H601        H  0.41121959  0.52356828  0.04300834     0.43560
H602        H  0.15397607  0.70003500  0.47346373     0.43920
O603        O  0.42193414  0.56971611  0.15258771    -0.74950
O604        O  0.42640504  0.58543221  0.20301386    -0.53860
C605        C  0.41405760  0.58462799  0.17537904     0.78780
O606        O  0.41295918  0.87677332  0.18088637    -0.59550
O607        O  0.47843844  0.91081660  0.15274196    -0.52580
C608        C  0.43930570  0.87473081  0.16445072     0.70790
O609        O  0.34795547  0.93460733  0.21530410    -0.74110
O610        O  0.37784993  0.50494694  0.23634400    -0.54680
C611        C  0.34364785  0.96212335  0.22821958     0.76790
O612        O  0.48968341  0.52718771  0.09746302    -0.59260
O613        O  0.02652084  0.99763360  0.10455615    -0.52380
C614        C  0.50968670  0.51206034  0.08724657     0.73390
Zr615      Zr  0.46507217  0.54296056  0.14201677     2.54710
O616        O  0.39389052  0.49344764  0.11134831    -0.79820
O617        O  0.99919837  0.61139710  0.10874364    -0.93240
Zr618      Zr  0.40856160  0.93502139  0.19754721     2.64680
O619        O  0.34187133  0.88533223  0.16314171    -0.98190
O620        O  0.37059749  0.87385680  0.23701083    -0.80250
O621        O  0.42142168  0.50489255  0.18659747    -0.83610
O622        O  0.45180300  0.97228394  0.15223450    -2.18320
O623        O  0.14146824  0.62108153  0.16962181    -0.67000
O624        O  0.11199122  0.54887876  0.15218579    -0.51570
C625        C  0.14598588  0.59281912  0.15820806     0.71770
O626        O  0.00313031  0.52651749  0.29187112    -0.59910
O627        O  0.46442510  0.55415978  0.28500542    -0.51890
C628        C  0.48267099  0.54094576  0.30219168     0.73570
O629        O  0.06317729  0.97810292  0.23632766    -0.71310
O630        O  0.06191533  0.96589510  0.18559618    -0.49980
C631        C  0.07226749  0.96465123  0.21335774     0.74950
O632        O  0.07933162  0.67625316  0.21116678    -0.66630
O633        O  0.01212673  0.64207197  0.23742808    -0.53830
C634        C  0.05238555  0.67825448  0.22693270     0.73340
Zr635      Zr  0.08029946  0.61692429  0.19140832     2.77540
O636        O  0.14572442  0.66269827  0.22708033    -0.97380
O637        O  0.11817439  0.68002965  0.15336008    -0.78200
Zr638      Zr  0.02279577  0.50768273  0.24673711     2.70070
O639        O  0.09313890  0.55181579  0.27836022    -0.79450
O640        O  0.48258295  0.93648877  0.27817245    -0.98540
Zr641      Zr  0.46218156  0.55704589  0.22845254     2.21500
Zr642      Zr  0.02758708  0.49576596  0.16072923     2.11130
O643        O  0.06792961  0.54731779  0.20304883    -2.47220
O644        O  0.03727461  0.57922165  0.23674941    -0.79240
O645        O  0.04044168  0.56652823  0.14910732    -0.71440
O646        O  0.44804235  0.98541493  0.23973912    -2.32400
O647        O  0.00629606  0.59541304  0.18295335    -2.28610
O648        O  0.48237331  0.95622227  0.20542481    -0.73200
H649        H  0.43598838  0.95090449  0.13538275     0.78800
H650        H  0.42901945  0.96987780  0.25760611     0.79880
H651        H  0.09749958  0.55499759  0.20724721     0.82110
H652        H  0.00983938  0.62303730  0.17812565     0.79720
H653        H  0.35864517  0.88343561  0.25165725     0.42750
H654        H  0.47326903  0.91137308  0.26400317     0.41720
H655        H  0.10333023  0.58388881  0.27944647     0.41400
H656        H  0.15399579  0.64269885  0.23163006     0.39330
H657        H  0.09485616  0.66699417  0.13667095     0.42470
H658        H  0.00524757  0.63607446  0.12188415     0.37250
H659        H  0.36893480  0.97095210  0.12604101     0.43370
H660        H  0.35370621  0.87928730  0.14593155     0.39780
H661        H  0.17217586  0.68949889  0.21488561     0.44700
H662        H  0.47300438  0.60214653  0.09530884     0.43420
H663        H  0.32040674  0.85444153  0.17388190     0.43560
H664        H  0.00764243  0.94182137  0.29093543     0.43920
C665        C  0.11725140  0.80843864  0.21670838    -0.20970
C666        C  0.11594908  0.82224915  0.24598791    -0.09010
C667        C  0.08891132  0.78526393  0.26824496     0.29850
C668        C  0.06571943  0.73816758  0.26120302    -0.20970
C669        C  0.06980576  0.72618735  0.23262775    -0.09020
C670        C  0.09478767  0.76153758  0.21012387     0.29860
F671        F  0.09846551  0.75093171  0.18177449    -0.19540
H672        H  0.13741762  0.83485562  0.19895123     0.18220
H673        H  0.04699262  0.71131182  0.27889330     0.18230
F674        F  0.08650153  0.79304016  0.29753960    -0.19530
C675        C  0.07567111  0.90103163  0.20833982    -0.20970
C676        C  0.09540093  0.94526750  0.21958458    -0.09010
C677        C  0.13487750  0.96882083  0.23846985     0.29850
C678        C  0.15374195  0.94769676  0.24643874    -0.20970
C679        C  0.13278255  0.90139830  0.23696128    -0.09020
C680        C  0.09280861  0.87852633  0.21736233     0.29860
F681        F  0.06732970  0.83352604  0.20788266    -0.19540
H682        H  0.04464264  0.88227452  0.19399659     0.18220
H683        H  0.18361759  0.96671850  0.26176857     0.18230
F684        F  0.15469972  0.01194043  0.24972454    -0.19530
C685        C  0.26302548  0.89494213  0.24364964    -0.20970
C686        C  0.29521968  0.94177897  0.23348446    -0.09010
C687        C  0.27953305  0.96620327  0.22569708     0.29850
C688        C  0.23207999  0.94392946  0.22856264    -0.20970
C689        C  0.19951929  0.89766793  0.24115220    -0.09020
C690        C  0.21640009  0.87332043  0.24798173     0.29860
F691        F  0.18917346  0.82997639  0.26159005    -0.19540
H692        H  0.27448547  0.87535222  0.24944669     0.18220
H693        H  0.22208377  0.96416703  0.22143855     0.18230
F694        F  0.30984816  0.51126373  0.21472715    -0.19530
C695        C  0.09877541  0.74662505  0.37369362    -0.20970
C696        C  0.07018777  0.72255233  0.39867166    -0.09010
C697        C  0.06570423  0.74706750  0.41959226     0.29850
C698        C  0.08996681  0.79547962  0.41538424    -0.20970
C699        C  0.11834020  0.82071555  0.38960017    -0.09020
C700        C  0.12301813  0.79471628  0.36925076     0.29860
F701        F  0.15306022  0.81498079  0.34585070    -0.19540
H702        H  0.10429535  0.72851562  0.35821197     0.18220
H703        H  0.08753783  0.81344514  0.43301616     0.18230
F704        F  0.03979471  0.72472288  0.44495629    -0.19530
C705        C  0.14677000  0.92973342  0.42308874    -0.20970
C706        C  0.12302701  0.89107278  0.40285070    -0.09010
C707        C  0.07443913  0.86641377  0.39808464     0.29850
C708        C  0.05433845  0.88528359  0.40749571    -0.20970
C709        C  0.08053919  0.92706562  0.42401945    -0.09020
C710        C  0.12619699  0.94792621  0.43300831     0.29860
F711        F  0.15205011  0.48769664  0.44988904    -0.19540
H712        H  0.18184102  0.94749761  0.43118320     0.18220
H713        H  0.01813582  0.86734130  0.40159155     0.18230
F714        F  0.04596375  0.82421064  0.38369455    -0.19530
C715        C  0.20869244  0.87609333  0.41700283    -0.20970
C716        C  0.19783817  0.90154279  0.40143817    -0.09010
C717        C  0.23559276  0.95079526  0.39623665     0.29850
C718        C  0.28217810  0.97073176  0.40162230    -0.20970
C719        C  0.29246887  0.94292918  0.41331593    -0.09020
C720        C  0.25485263  0.89601857  0.42257917     0.29860
F721        F  0.26212091  0.86788831  0.43582436    -0.19540
H722        H  0.18192703  0.83951005  0.42373195     0.18220
H723        H  0.31019578  0.50745077  0.39542337     0.18230
F724        F  0.22786956  0.97815432  0.38223986    -0.19530
C725        C  0.11794441  0.88077019  0.33430182    -0.20970
C726        C  0.15452892  0.88901095  0.35200593    -0.09010
C727        C  0.19409546  0.90304719  0.33545336     0.29850
C728        C  0.19430456  0.90433468  0.30414595    -0.20970
C729        C  0.15372836  0.88621936  0.28707509    -0.09020
C730        C  0.11688099  0.87838245  0.30275672     0.29860
F731        F  0.07760611  0.86420495  0.28790326    -0.19540
H732        H  0.08820272  0.87384367  0.34386369     0.18220
H733        H  0.22627441  0.91624532  0.29414992     0.18230
F734        F  0.22987178  0.90730309  0.34820212    -0.19530
C735        C  0.25780746  0.61140407  0.16167436    -0.20970
C736        C  0.28988704  0.65608979  0.14716488    -0.09010
C737        C  0.27327740  0.68004275  0.13818691     0.29850
C738        C  0.22656588  0.65875072  0.14167853    -0.20970
C739        C  0.19443582  0.61287303  0.15347242    -0.09020
C740        C  0.21037764  0.58953625  0.16406447     0.29860
F741        F  0.18030350  0.54601162  0.17729874    -0.19540
H742        H  0.26832540  0.59209886  0.17024113     0.18220
H743        H  0.21504986  0.67770879  0.13408185     0.18230
F744        F  0.30104043  0.72231691  0.12323242    -0.19530
C745        C  0.39413169  0.79106030  0.18069651    -0.20970
C746        C  0.42178999  0.82674757  0.15877475    -0.09010
C747        C  0.42752012  0.81477830  0.13067582     0.29850
C748        C  0.40287495  0.76743130  0.12373975    -0.20970
C749        C  0.37333924  0.73031073  0.14518295    -0.09020
C750        C  0.37057735  0.74383091  0.17425872     0.29860
F751        F  0.34348924  0.71089215  0.19628382    -0.19540
H752        H  0.38958348  0.79961098  0.20277407     0.18220
H753        H  0.40599153  0.76140632  0.10071516     0.18230
F754        F  0.45389800  0.84839919  0.10887523    -0.19530
C755        C  0.33467619  0.60465029  0.14117470    -0.20970
C756        C  0.35553320  0.65041435  0.15169004    -0.09010
C757        C  0.39389769  0.67138464  0.17245771     0.29850
C758        C  0.41014286  0.64795078  0.18134260    -0.20970
C759        C  0.39107816  0.60445981  0.16900057    -0.09020
C760        C  0.35282317  0.58260592  0.14900680     0.29860
F761        F  0.33335407  0.54020058  0.13668994    -0.19540
H762        H  0.30537618  0.58675497  0.12541081     0.18220
H763        H  0.44001600  0.66549329  0.19664901     0.18230
F764        F  0.41813492  0.71522198  0.18377568    -0.19530
C765        C  0.25534885  0.59706487  0.99584945    -0.20970
C766        C  0.29266558  0.64460627  0.48717522    -0.09010
C767        C  0.28134989  0.66582381  0.46675517     0.29850
C768        C  0.23492606  0.64656236  0.46319201    -0.20970
C769        C  0.19826554  0.60420019  0.47815607    -0.09020
C770        C  0.20868755  0.57789184  0.49278592     0.29860
F771        F  0.17447942  0.53503339  0.00570193    -0.19540
H772        H  0.26220354  0.57729886  0.00911827     0.18220
H773        H  0.22800241  0.66565926  0.44903674     0.18230
F774        F  0.31480797  0.70575526  0.45079736    -0.19530
C775        C  0.35251428  0.74627451  0.50769435    -0.20970
C776        C  0.37252456  0.72686158  0.49786550    -0.09010
C777        C  0.41977347  0.75944941  0.48800649     0.29850
C778        C  0.44300516  0.80806525  0.48496782    -0.20970
C779        C  0.42038040  0.82530523  0.49241491    -0.09020
C780        C  0.37543779  0.79405952  0.50460664     0.29860
F781        F  0.35303833  0.80968462  0.51300997    -0.19540
H782        H  0.31759987  0.72362632  0.01706340     0.18220
H783        H  0.47821843  0.83203972  0.47600948     0.17970
F784        F  0.44466709  0.74570775  0.48251028    -0.19530
C785        C  0.37467243  0.59331251  0.49503997    -0.20970
C786        C  0.39690160  0.60721550  0.46694377    -0.09010
C787        C  0.39681839  0.63870001  0.44863989     0.29850
C788        C  0.37802036  0.65846599  0.45972621    -0.20970
C789        C  0.36133721  0.64927068  0.48975214    -0.09020
C790        C  0.35647229  0.61288788  0.00610352     0.29860
F791        F  0.33288986  0.59432864  0.03260486    -0.19540
H792        H  0.37130226  0.56678881  0.00891381     0.18220
H793        H  0.37821527  0.68255252  0.44527294     0.18230
F794        F  0.41614965  0.65159841  0.42066964    -0.19530
C795        C  0.29856600  0.65055298  0.05283657    -0.20970
C796        C  0.33943340  0.66820623  0.03740035    -0.09010
C797        C  0.37949653  0.68541275  0.05517708     0.29850
C798        C  0.37787867  0.68460254  0.08682382    -0.20970
C799        C  0.33744445  0.66959611  0.10197409    -0.09020
C800        C  0.29620202  0.64707123  0.08397011     0.29860
F801        F  0.25229775  0.61946108  0.09531403    -0.19540
H802        H  0.26740227  0.63975216  0.04138960     0.18220
H803        H  0.40945941  0.69879338  0.09961966     0.18230
F804        F  0.42055734  0.70374759  0.04192077    -0.19530
C805        C  0.34210525  0.67228909  0.50230578    -0.02150
C806        C  0.33940100  0.67657825  0.63693131    -0.02150
C807        C  0.14833879  0.87577603  0.88676492    -0.02150
C808        C  0.14994905  0.87663236  0.75248606    -0.02150
O809        O  0.34751922  0.93648915  0.93149932    -0.74950
O810        O  0.37519889  0.50215691  0.90346482    -0.53860
C811        C  0.34163826  0.96205285  0.91612051     0.78780
O812        O  0.49312097  0.52987724  0.54160214    -0.59550
O813        O  0.02752140  0.99771837  0.53732819    -0.52580
C814        C  0.51104923  0.51288034  0.55326863     0.70790
O815        O  0.43368649  0.57740304  0.98170889    -0.74110
O816        O  0.42777112  0.58615465  0.93099214    -0.54680
C817        C  0.42106394  0.58931653  0.95896415     0.76790
O818        O  0.41135381  0.87602706  0.96917097    -0.59260
O819        O  0.48213299  0.90942566  0.99146607    -0.52380
C820        C  0.43968471  0.87359939  0.98394402     0.73390
Zr821      Zr  0.40810200  0.93351561  0.94556681     2.54710
O822        O  0.34153134  0.88155647  0.97909114    -0.79820
O823        O  0.36958761  0.87355483  0.90640887    -0.93240
Zr824      Zr  0.47256099  0.54661474  0.99485434     2.64680
O825        O  0.40206254  0.50299924  0.52543460    -0.98190
O826        O  0.01203165  0.61751846  0.52503615    -0.80250
O827        O  0.42368131  0.50515698  0.95275554    -0.83610
O828        O  0.45611166  0.97394153  0.98888062    -2.18320
O829        O  0.04617902  0.95862830  0.90650148    -0.67000
O830        O  0.06101760  0.96089392  0.95736895    -0.51570
C831        C  0.06115014  0.95018364  0.92985049     0.71770
O832        O  0.08204767  0.67305423  0.92004082    -0.59910
O833        O  0.01060776  0.63902073  0.89825959    -0.51890
C834        C  0.05300069  0.67494953  0.90580076     0.73570
O835        O  0.14514165  0.61470941  0.96192775    -0.71310
O836        O  0.11537673  0.54606972  0.98712113    -0.49980
C837        C  0.14981041  0.58727746  0.97614590     0.74950
O838        O  0.99947008  0.52226745  0.84769825    -0.66630
O839        O  0.46330302  0.55253647  0.85226718    -0.53830
C840        C  0.48125014  0.53920810  0.83617994     0.73340
Zr841      Zr  0.01640822  0.49930823  0.89375864     2.77540
O842        O  0.08686499  0.54047550  0.86338362    -0.97380
O843        O  0.47284585  0.92958330  0.86200676    -0.78200
Zr844      Zr  0.08282683  0.61357449  0.94339159     2.70070
O845        O  0.14749081  0.66033398  0.90793463    -0.79450
O846        O  0.12178961  0.67550025  0.98121705    -0.98540
Zr847      Zr  0.46076009  0.55410644  0.90861439     2.21500
Zr848      Zr  0.03008703  0.49408569  0.98074063     2.11130
O849        O  0.06619546  0.54123353  0.93552683    -2.47220
O850        O  0.03398616  0.57264474  0.90022674    -0.79240
O851        O  0.48009175  0.95205690  0.93777201    -0.71440
O852        O  0.01068458  0.59538684  0.95187127    -2.32400
O853        O  0.44345467  0.98032507  0.90081291    -2.28610
O854        O  0.04647001  0.56714705  0.98820633    -0.73200
H855        H  0.44103290  0.95386282  0.00663016     0.78800
H856        H  0.01569387  0.62383523  0.95560278     0.79880
H857        H  0.09410397  0.54634493  0.93074975     0.82110
H858        H  0.42294212  0.96409465  0.88348742     0.79720
H859        H  0.03716774  0.64364476  0.51182369     0.42750
H860        H  0.12561734  0.66175728  0.99918441     0.41720
H861        H  0.14322700  0.63663047  0.89473915     0.41400
H862        H  0.11030631  0.54397336  0.87693476     0.39330
H863        H  0.45445855  0.90254862  0.87646403     0.42470
H864        H  0.34822220  0.87677991  0.89585353     0.37250
H865        H  0.34489037  0.90308262  0.99397810     0.43370
H866        H  0.39797487  0.97566861  0.53399580     0.39780
H867        H  0.07893487  0.51696103  0.84826418     0.44700
H868        H  0.34848107  0.84310637  0.91766641     0.43420
H869        H  0.41121961  0.52356831  0.54300835     0.43560
H870        H  0.15397611  0.70003498  0.97346375     0.43920
O871        O  0.42193413  0.56971611  0.65258771    -0.74950
O872        O  0.42640503  0.58543221  0.70301387    -0.53860
C873        C  0.41405759  0.58462799  0.67537905     0.78780
O874        O  0.41295917  0.87677332  0.68088637    -0.59550
O875        O  0.47843843  0.91081660  0.65274196    -0.52580
C876        C  0.43930568  0.87473081  0.66445072     0.70790
O877        O  0.34795546  0.93460734  0.71530410    -0.74110
O878        O  0.37784992  0.50494694  0.73634400    -0.54680
C879        C  0.34364784  0.96212336  0.72821957     0.76790
O880        O  0.48968340  0.52718772  0.59746302    -0.59260
O881        O  0.02652083  0.99763360  0.60455615    -0.52380
C882        C  0.50968669  0.51206035  0.58724657     0.73390
Zr883      Zr  0.46507216  0.54296056  0.64201677     2.54710
O884        O  0.39389050  0.49344762  0.61134832    -0.79820
O885        O  0.99919834  0.61139709  0.60874363    -0.93240
Zr886      Zr  0.40856159  0.93502140  0.69754721     2.64680
O887        O  0.34187132  0.88533224  0.66314171    -0.98190
O888        O  0.37059747  0.87385680  0.73701083    -0.80250
O889        O  0.42142167  0.50489255  0.68659747    -0.83610
O890        O  0.45180299  0.97228395  0.65223450    -2.18320
O891        O  0.14146824  0.62108153  0.66962181    -0.67000
O892        O  0.11199121  0.54887875  0.65218578    -0.51570
C893        C  0.14598586  0.59281912  0.65820806     0.71770
O894        O  0.00313032  0.52651750  0.79187112    -0.59910
O895        O  0.46442510  0.55415979  0.78500542    -0.51890
C896        C  0.48267100  0.54094576  0.80219168     0.73570
O897        O  0.06317728  0.97810292  0.73632766    -0.71310
O898        O  0.06191532  0.96589509  0.68559618    -0.49980
C899        C  0.07226748  0.96465123  0.71335774     0.74950
O900        O  0.07933161  0.67625316  0.71116678    -0.66630
O901        O  0.01212673  0.64207198  0.73742808    -0.53830
C902        C  0.05238555  0.67825449  0.72693270     0.73340
Zr903      Zr  0.08029945  0.61692429  0.69140832     2.77540
O904        O  0.14572441  0.66269826  0.72708034    -0.97380
O905        O  0.11817440  0.68002965  0.65336009    -0.78200
Zr906      Zr  0.02279576  0.50768273  0.74673711     2.70070
O907        O  0.09313888  0.55181577  0.77836023    -0.79450
O908        O  0.48258291  0.93648875  0.77817244    -0.98540
Zr909      Zr  0.46218156  0.55704590  0.72845255     2.21500
Zr910      Zr  0.02758707  0.49576596  0.66072923     2.11130
O911        O  0.06792960  0.54731779  0.70304883    -2.47220
O912        O  0.03727461  0.57922165  0.73674941    -0.79240
O913        O  0.04044168  0.56652823  0.64910732    -0.71440
O914        O  0.44804233  0.98541493  0.73973911    -2.32400
O915        O  0.00629606  0.59541304  0.68295335    -2.28610
O916        O  0.48237330  0.95622227  0.70542481    -0.73200
H917        H  0.43598837  0.95090449  0.63538275     0.78800
H918        H  0.42901944  0.96987780  0.75760611     0.79880
H919        H  0.09749957  0.55499759  0.70724720     0.82110
H920        H  0.00983937  0.62303730  0.67812565     0.79720
H921        H  0.35864515  0.88343561  0.75165724     0.42750
H922        H  0.47326900  0.91137307  0.76400315     0.41720
H923        H  0.10333023  0.58388879  0.77944648     0.41400
H924        H  0.15399578  0.64269884  0.73163006     0.39330
H925        H  0.09485594  0.66699439  0.63667112     0.42470
H926        H  0.00524750  0.63607444  0.62188414     0.37250
H927        H  0.36893479  0.97095212  0.62604101     0.43370
H928        H  0.35370620  0.87928731  0.64593155     0.39780
H929        H  0.17217585  0.68949888  0.71488563     0.44700
H930        H  0.47300434  0.60214648  0.59530882     0.43420
H931        H  0.32040673  0.85444154  0.67388189     0.43560
H932        H  0.00764239  0.94182135  0.79093543     0.43920
C933        C  0.11725140  0.80843864  0.71670838    -0.20970
C934        C  0.11594907  0.82224915  0.74598791    -0.09010
C935        C  0.08891130  0.78526393  0.76824495     0.29850
C936        C  0.06571941  0.73816758  0.76120301    -0.20970
C937        C  0.06980576  0.72618736  0.73262775    -0.09020
C938        C  0.09478767  0.76153759  0.71012387     0.29860
F939        F  0.09846552  0.75093171  0.68177449    -0.19540
H940        H  0.13741762  0.83485563  0.69895123     0.18220
H941        H  0.04699259  0.71131182  0.77889329     0.18230
F942        F  0.08650146  0.79304016  0.79753958    -0.19530
C943        C  0.07567110  0.90103162  0.70833982    -0.20970
C944        C  0.09540091  0.94526750  0.71958458    -0.09010
C945        C  0.13487749  0.96882083  0.73846985     0.29850
C946        C  0.15374194  0.94769676  0.74643873    -0.20970
C947        C  0.13278254  0.90139831  0.73696128    -0.09020
C948        C  0.09280860  0.87852633  0.71736233     0.29860
F949        F  0.06732969  0.83352604  0.70788266    -0.19540
H950        H  0.04464262  0.88227452  0.69399659     0.18220
H951        H  0.18361758  0.96671850  0.76176857     0.18230
F952        F  0.15469971  0.01194043  0.74972454    -0.19530
C953        C  0.26302547  0.89494214  0.74364963    -0.20970
C954        C  0.29521967  0.94177898  0.73348446    -0.09010
C955        C  0.27953304  0.96620327  0.72569707     0.29850
C956        C  0.23207998  0.94392947  0.72856263    -0.20970
C957        C  0.19951928  0.89766794  0.74115219    -0.09020
C958        C  0.21640008  0.87332043  0.74798172     0.29860
F959        F  0.18917345  0.82997639  0.76159004    -0.19540
H960        H  0.27448546  0.87535222  0.74944668     0.18220
H961        H  0.22208375  0.96416703  0.72143854     0.18230
F962        F  0.30984815  0.51126374  0.71472715    -0.19530
C963        C  0.09877523  0.74662499  0.87369359    -0.20970
C964        C  0.07018776  0.72255235  0.89867170    -0.09010
C965        C  0.06570438  0.74706758  0.91959235     0.29850
C966        C  0.08996694  0.79547969  0.91538430    -0.20970
C967        C  0.11834018  0.82071555  0.88960017    -0.09020
C968        C  0.12301795  0.79471622  0.86925070     0.29860
F969        F  0.15305987  0.81498065  0.84585055    -0.19540
H970        H  0.10429504  0.72851550  0.85821188     0.18220
H971        H  0.08753808  0.81344527  0.93301625     0.18230
F972        F  0.03979502  0.72472302  0.94495644    -0.19530
C973        C  0.14677002  0.92973345  0.92308871    -0.20970
C974        C  0.12302702  0.89107279  0.90285070    -0.09010
C975        C  0.07443913  0.86641376  0.89808465     0.29850
C976        C  0.05433845  0.88528357  0.90749572    -0.20970
C977        C  0.08053919  0.92706563  0.92401945    -0.09020
C978        C  0.12619701  0.94792623  0.93300829     0.29860
F979        F  0.15205013  0.48769667  0.94988900    -0.19540
H980        H  0.18184105  0.94749766  0.93118317     0.18220
H981        H  0.01813581  0.86734127  0.90159157     0.18230
F982        F  0.04596376  0.82421062  0.88369457    -0.19530
C983        C  0.20869246  0.87609332  0.91700280    -0.20970
C984        C  0.19783818  0.90154279  0.90143816    -0.09010
C985        C  0.23559277  0.95079526  0.89623663     0.29850
C986        C  0.28217811  0.97073176  0.90162228    -0.20970
C987        C  0.29246888  0.94292917  0.91331591    -0.09020
C988        C  0.25485264  0.89601857  0.92257914     0.29860
F989        F  0.26212093  0.86788830  0.93582432    -0.19540
H990        H  0.18192705  0.83951004  0.92373191     0.18220
H991        H  0.31019579  0.50745076  0.89542336     0.18230
F992        F  0.22786957  0.97815432  0.88223984    -0.19530
C993        C  0.11794442  0.88077021  0.83430182    -0.20970
C994        C  0.15452892  0.88901095  0.85200592    -0.09010
C995        C  0.19409545  0.90304717  0.83545336     0.29850
C996        C  0.19430455  0.90433467  0.80414594    -0.20970
C997        C  0.15372835  0.88621937  0.78707509    -0.09020
C998        C  0.11688099  0.87838247  0.80275672     0.29860
F999        F  0.07760611  0.86420498  0.78790327    -0.19540
H1000       H  0.08820273  0.87384369  0.84386370     0.18220
H1001       H  0.22627439  0.91624530  0.79414992     0.18230
F1002       F  0.22987174  0.90730300  0.84820212    -0.19530
C1003       C  0.25780745  0.61140407  0.66167436    -0.20970
C1004       C  0.28988703  0.65608979  0.64716487    -0.09010
C1005       C  0.27327738  0.68004274  0.63818690     0.29850
C1006       C  0.22656586  0.65875071  0.64167852    -0.20970
C1007       C  0.19443581  0.61287303  0.65347242    -0.09020
C1008       C  0.21037763  0.58953625  0.66406447     0.29860
F1009       F  0.18030349  0.54601163  0.67729875    -0.19540
H1010       H  0.26832539  0.59209886  0.67024114     0.18220
H1011       H  0.21504984  0.67770878  0.63408183     0.18230
F1012       F  0.30104041  0.72231690  0.62323240    -0.19530
C1013       C  0.39413167  0.79106030  0.68069651    -0.20970
C1014       C  0.42178997  0.82674757  0.65877475    -0.09010
C1015       C  0.42752012  0.81477830  0.63067583     0.29850
C1016       C  0.40287495  0.76743130  0.62373975    -0.20970
C1017       C  0.37333923  0.73031073  0.64518296    -0.09020
C1018       C  0.37057733  0.74383091  0.67425872     0.29860
F1019       F  0.34348921  0.71089215  0.69628382    -0.19540
H1020       H  0.38958344  0.79961097  0.70277407     0.18220
H1021       H  0.40599154  0.76140632  0.60071517     0.18230
F1022       F  0.45389802  0.84839919  0.60887524    -0.19530
C1023       C  0.33467618  0.60465029  0.64117470    -0.20970
C1024       C  0.35553319  0.65041435  0.65169004    -0.09010
C1025       C  0.39389767  0.67138463  0.67245772     0.29850
C1026       C  0.41014284  0.64795077  0.68134261    -0.20970
C1027       C  0.39107815  0.60445981  0.66900058    -0.09020
C1028       C  0.35282316  0.58260593  0.64900681     0.29860
F1029       F  0.33335407  0.54020059  0.63668993    -0.19540
H1030       H  0.30537617  0.58675497  0.62541081     0.18220
H1031       H  0.44001597  0.66549328  0.69664903     0.18230
F1032       F  0.41813489  0.71522196  0.68377570    -0.19530
C1033       C  0.25534885  0.59706487  0.49584945    -0.20970
C1034       C  0.29266558  0.64460627  0.98717522    -0.09010
C1035       C  0.28134989  0.66582380  0.96675517     0.29850
C1036       C  0.23492606  0.64656235  0.96319201    -0.20970
C1037       C  0.19826555  0.60420018  0.97815607    -0.09020
C1038       C  0.20868755  0.57789184  0.99278593     0.29860
F1039       F  0.17447941  0.53503339  0.50570192    -0.19540
H1040       H  0.26220353  0.57729886  0.50911826     0.18220
H1041       H  0.22800241  0.66565924  0.94903673     0.18230
F1042       F  0.31480797  0.70575524  0.95079735    -0.19530
C1043       C  0.35251428  0.74627450  0.00769434    -0.20970
C1044       C  0.37252456  0.72686157  0.99786549    -0.09010
C1045       C  0.41977347  0.75944940  0.98800649     0.29850
C1046       C  0.44300516  0.80806524  0.98496781    -0.20970
C1047       C  0.42038040  0.82530522  0.99241491    -0.09020
C1048       C  0.37543779  0.79405951  0.00460663     0.29860
F1049       F  0.35303832  0.80968461  0.01300996    -0.19540
H1050       H  0.31759987  0.72362632  0.51706341     0.18220
H1051       H  0.47821844  0.83203972  0.97600948     0.17970
F1052       F  0.44466709  0.74570775  0.98251028    -0.19530
C1053       C  0.37467244  0.59331250  0.99503998    -0.20970
C1054       C  0.39690161  0.60721549  0.96694377    -0.09010
C1055       C  0.39681840  0.63870000  0.94863989     0.29850
C1056       C  0.37802036  0.65846599  0.95972621    -0.20970
C1057       C  0.36133721  0.64927068  0.98975214    -0.09020
C1058       C  0.35647229  0.61288789  0.50610352     0.29860
F1059       F  0.33288986  0.59432865  0.53260486    -0.19540
H1060       H  0.37130226  0.56678881  0.50891380     0.18220
H1061       H  0.37821528  0.68255252  0.94527294     0.18230
F1062       F  0.41614967  0.65159841  0.92066964    -0.19530
C1063       C  0.29856599  0.65055298  0.55283657    -0.20970
C1064       C  0.33943340  0.66820623  0.53740035    -0.09010
C1065       C  0.37949652  0.68541275  0.55517709     0.29850
C1066       C  0.37787867  0.68460254  0.58682382    -0.20970
C1067       C  0.33744444  0.66959611  0.60197409    -0.09020
C1068       C  0.29620202  0.64707122  0.58397011     0.29860
F1069       F  0.25229774  0.61946106  0.59531403    -0.19540
H1070       H  0.26740227  0.63975215  0.54138960     0.18220
H1071       H  0.40945940  0.69879337  0.59961966     0.18230
F1072       F  0.42055734  0.70374759  0.54192077    -0.19530
C1073       C  0.84210525  0.17228908  0.00230578    -0.02150
C1074       C  0.83940100  0.17657825  0.13693131    -0.02150
C1075       C  0.64833879  0.37577602  0.38676493    -0.02150
C1076       C  0.64994906  0.37663236  0.25248606    -0.02150
O1077       O  0.84751921  0.43648916  0.43149934    -0.74950
O1078       O  0.87519887  0.00215691  0.40346482    -0.53860
C1079       C  0.84163825  0.46205285  0.41612052     0.78780
O1080       O  0.99312095  0.02987721  0.04160214    -0.59550
O1081       O  0.52752141  0.49771837  0.03732818    -0.52580
C1082       C  0.01104922  0.01288032  0.05326863     0.70790
O1083       O  0.93368648  0.07740305  0.48170888    -0.74110
O1084       O  0.92777111  0.08615465  0.43099213    -0.54680
C1085       C  0.92106393  0.08931653  0.45896415     0.76790
O1086       O  0.91135381  0.37602707  0.46917099    -0.59260
O1087       O  0.98213299  0.40942567  0.49146607    -0.52380
C1088       C  0.93968471  0.37359939  0.48394403     0.73390
Zr1089     Zr  0.90810199  0.43351562  0.44556683     2.54710
O1090       O  0.84153135  0.38155650  0.47909117    -0.79820
O1091       O  0.86958758  0.37355482  0.40640889    -0.93240
Zr1092     Zr  0.97256099  0.04661475  0.49485434     2.64680
O1093       O  0.90206249  0.00299915  0.02543459    -0.98190
O1094       O  0.51203159  0.11751842  0.02503616    -0.80250
O1095       O  0.92368131  0.00515698  0.45275554    -0.83610
O1096       O  0.95611167  0.47394155  0.48888063    -2.18320
O1097       O  0.54617901  0.45862829  0.40650149    -0.67000
O1098       O  0.56101760  0.46089392  0.45736896    -0.51570
C1099       C  0.56115014  0.45018363  0.42985050     0.71770
O1100       O  0.58204766  0.17305421  0.42004079    -0.59910
O1101       O  0.51060774  0.13902072  0.39825959    -0.51890
C1102       C  0.55300068  0.17494951  0.40580074     0.73570
O1103       O  0.64514164  0.11470941  0.46192775    -0.71310
O1104       O  0.61537672  0.04606973  0.48712113    -0.49980
C1105       C  0.64981040  0.08727746  0.47614590     0.74950
O1106       O  0.49947007  0.02226744  0.34769825    -0.66630
O1107       O  0.96330301  0.05253646  0.35226717    -0.53830
C1108       C  0.98125014  0.03920809  0.33617994     0.73340
Zr1109     Zr  0.51640820  0.99930821  0.39375864     2.77540
O1110       O  0.58686496  0.04047548  0.36338362    -0.97380
O1111       O  0.97284580  0.42958326  0.36200677    -0.78200
Zr1112     Zr  0.58282682  0.11357448  0.44339158     2.70070
O1113       O  0.64749082  0.16033398  0.40793464    -0.79450
O1114       O  0.62178957  0.17550024  0.48121704    -0.98540
Zr1115     Zr  0.96076008  0.05410643  0.40861439     2.21500
Zr1116     Zr  0.53008702  0.99408569  0.48074063     2.11130
O1117       O  0.56619545  0.04123352  0.43552683    -2.47220
O1118       O  0.53398614  0.07264472  0.40022674    -0.79240
O1119       O  0.98009174  0.45205689  0.43777202    -0.71440
O1120       O  0.51068457  0.09538684  0.45187127    -2.32400
O1121       O  0.94345465  0.48032505  0.40081291    -2.28610
O1122       O  0.54647001  0.06714706  0.48820633    -0.73200
H1123       H  0.94103291  0.45386285  0.50663017     0.78800
H1124       H  0.51569387  0.12383523  0.45560277     0.79880
H1125       H  0.59410396  0.04634493  0.43074975     0.82110
H1126       H  0.92294209  0.46409463  0.38348743     0.79720
H1127       H  0.53716787  0.14364468  0.01182378     0.42750
H1128       H  0.62561733  0.16175729  0.49918440     0.41720
H1129       H  0.64322705  0.13663047  0.39473919     0.41400
H1130       H  0.61030629  0.04397336  0.37693476     0.39330
H1131       H  0.95445851  0.40254858  0.37646405     0.42470
H1132       H  0.84822217  0.37677990  0.39585355     0.37250
H1133       H  0.84489038  0.40308265  0.49397813     0.43370
H1134       H  0.89797489  0.47566860  0.03399581     0.39780
H1135       H  0.57893485  0.01696100  0.34826418     0.44700
H1136       H  0.84848103  0.34310636  0.41766644     0.43420
H1137       H  0.91121953  0.02356823  0.04300833     0.43560
H1138       H  0.65397606  0.20003500  0.47346374     0.43920
O1139       O  0.92193414  0.06971610  0.15258771    -0.74950
O1140       O  0.92640504  0.08543221  0.20301386    -0.53860
C1141       C  0.91405760  0.08462798  0.17537904     0.78780
O1142       O  0.91295919  0.37677332  0.18088637    -0.59550
O1143       O  0.97843844  0.41081660  0.15274196    -0.52580
C1144       C  0.93930570  0.37473082  0.16445072     0.70790
O1145       O  0.84795547  0.43460733  0.21530410    -0.74110
O1146       O  0.87784993  0.00494694  0.23634400    -0.54680
C1147       C  0.84364785  0.46212336  0.22821958     0.76790
O1148       O  0.98968340  0.02718770  0.09746302    -0.59260
O1149       O  0.52652085  0.49763360  0.10455615    -0.52380
C1150       C  0.00968669  0.01206034  0.08724657     0.73390
Zr1151     Zr  0.96507216  0.04296055  0.14201677     2.54710
O1152       O  0.89389051  0.99344763  0.11134831    -0.79820
O1153       O  0.49919834  0.11139708  0.10874363    -0.93240
Zr1154     Zr  0.90856160  0.43502140  0.19754720     2.64680
O1155       O  0.84187134  0.38533226  0.16314169    -0.98190
O1156       O  0.87059747  0.37385679  0.23701082    -0.80250
O1157       O  0.92142167  0.00489254  0.18659747    -0.83610
O1158       O  0.95180301  0.47228395  0.15223450    -2.18320
O1159       O  0.64146824  0.12108153  0.16962181    -0.67000
O1160       O  0.61199122  0.04887875  0.15218579    -0.51570
C1161       C  0.64598587  0.09281912  0.15820806     0.71770
O1162       O  0.50313032  0.02651750  0.29187112    -0.59910
O1163       O  0.96442510  0.05415979  0.28500542    -0.51890
C1164       C  0.98267100  0.04094576  0.30219168     0.73570
O1165       O  0.56317729  0.47810291  0.23632766    -0.71310
O1166       O  0.56191533  0.46589509  0.18559618    -0.49980
C1167       C  0.57226749  0.46465123  0.21335774     0.74950
O1168       O  0.57933161  0.17625315  0.21116677    -0.66630
O1169       O  0.51212673  0.14207197  0.23742808    -0.53830
C1170       C  0.55238555  0.17825448  0.22693270     0.73340
Zr1171     Zr  0.58029946  0.11692428  0.19140832     2.77540
O1172       O  0.64572442  0.16269828  0.22708032    -0.97380
O1173       O  0.61817438  0.18002964  0.15336008    -0.78200
Zr1174     Zr  0.52279578  0.00768274  0.24673711     2.70070
O1175       O  0.59313891  0.05181580  0.27836022    -0.79450
O1176       O  0.98258294  0.43648876  0.27817245    -0.98540
Zr1177     Zr  0.96218156  0.05704589  0.22845254     2.21500
Zr1178     Zr  0.52758708  0.99576596  0.16072923     2.11130
O1179       O  0.56792961  0.04731779  0.20304883    -2.47220
O1180       O  0.53727461  0.07922166  0.23674941    -0.79240
O1181       O  0.54044168  0.06652822  0.14910732    -0.71440
O1182       O  0.94804235  0.48541492  0.23973911    -2.32400
O1183       O  0.50629606  0.09541304  0.18295335    -2.28610
O1184       O  0.98237331  0.45622227  0.20542481    -0.73200
H1185       H  0.93598839  0.45090449  0.13538275     0.78800
H1186       H  0.92901945  0.46987780  0.25760611     0.79880
H1187       H  0.59749958  0.05499759  0.20724720     0.82110
H1188       H  0.50983937  0.12303730  0.17812565     0.79720
H1189       H  0.85864518  0.38343561  0.25165724     0.42750
H1190       H  0.97326903  0.41137308  0.26400316     0.41720
H1191       H  0.60333024  0.08388882  0.27944647     0.41400
H1192       H  0.65399579  0.14269886  0.23163005     0.39330
H1193       H  0.59485607  0.16699423  0.13667100     0.42470
H1194       H  0.50524754  0.13607444  0.12188414     0.37250
H1195       H  0.86893481  0.47095212  0.12604100     0.43370
H1196       H  0.85370622  0.37928730  0.14593155     0.39780
H1197       H  0.67217586  0.18949889  0.21488561     0.44700
H1198       H  0.97300436  0.10214652  0.09530885     0.43420
H1199       H  0.82040673  0.35444156  0.17388188     0.43560
H1200       H  0.50764241  0.44182135  0.29093543     0.43920
C1201       C  0.61725140  0.30843864  0.21670838    -0.20970
C1202       C  0.61594908  0.32224915  0.24598791    -0.09010
C1203       C  0.58891132  0.28526393  0.26824496     0.29850
C1204       C  0.56571943  0.23816758  0.26120302    -0.20970
C1205       C  0.56980576  0.22618735  0.23262775    -0.09020
C1206       C  0.59478767  0.26153758  0.21012387     0.29860
F1207       F  0.59846551  0.25093171  0.18177449    -0.19540
H1208       H  0.63741762  0.33485562  0.19895123     0.18220
H1209       H  0.54699262  0.21131182  0.27889329     0.18230
F1210       F  0.58650152  0.29304016  0.29753960    -0.19530
C1211       C  0.57567111  0.40103162  0.20833982    -0.20970
C1212       C  0.59540093  0.44526750  0.21958458    -0.09010
C1213       C  0.63487750  0.46882083  0.23846985     0.29850
C1214       C  0.65374195  0.44769675  0.24643874    -0.20970
C1215       C  0.63278255  0.40139830  0.23696128    -0.09020
C1216       C  0.59280861  0.37852632  0.21736234     0.29860
F1217       F  0.56732970  0.33352603  0.20788267    -0.19540
H1218       H  0.54464264  0.38227452  0.19399659     0.18220
H1219       H  0.68361759  0.46671850  0.26176857     0.18230
F1220       F  0.65469973  0.51194043  0.24972454    -0.19530
C1221       C  0.76302548  0.39494213  0.24364964    -0.20970
C1222       C  0.79521968  0.44177897  0.23348446    -0.09010
C1223       C  0.77953305  0.46620326  0.22569708     0.29850
C1224       C  0.73207999  0.44392946  0.22856263    -0.20970
C1225       C  0.69951929  0.39766793  0.24115220    -0.09020
C1226       C  0.71640009  0.37332043  0.24798173     0.29860
F1227       F  0.68917346  0.32997639  0.26159005    -0.19540
H1228       H  0.77448547  0.37535222  0.24944669     0.18220
H1229       H  0.72208376  0.46416702  0.22143855     0.18230
F1230       F  0.80984816  0.01126373  0.21472716    -0.19530
C1231       C  0.59877537  0.24662503  0.37369362    -0.20970
C1232       C  0.57018776  0.22255233  0.39867167    -0.09010
C1233       C  0.56570426  0.24706752  0.41959228     0.29850
C1234       C  0.58996683  0.29547963  0.41538425    -0.20970
C1235       C  0.61834019  0.32071555  0.38960017    -0.09020
C1236       C  0.62301809  0.29471627  0.36925075     0.29860
F1237       F  0.65306016  0.31498076  0.34585068    -0.19540
H1238       H  0.60429529  0.22851559  0.35821195     0.18220
H1239       H  0.58753787  0.31344517  0.43301618     0.18230
F1240       F  0.53979477  0.22472291  0.44495632    -0.19530
C1241       C  0.64677000  0.42973342  0.42308873    -0.20970
C1242       C  0.62302701  0.39107278  0.40285070    -0.09010
C1243       C  0.57443912  0.36641376  0.39808464     0.29850
C1244       C  0.55433845  0.38528358  0.40749571    -0.20970
C1245       C  0.58053918  0.42706562  0.42401945    -0.09020
C1246       C  0.62619699  0.44792621  0.43300831     0.29860
F1247       F  0.65205011  0.98769663  0.44988904    -0.19540
H1248       H  0.68184102  0.44749762  0.43118320     0.18220
H1249       H  0.51813582  0.36734129  0.40159155     0.18230
F1250       F  0.54596375  0.32421063  0.38369455    -0.19530
C1251       C  0.70869245  0.37609333  0.41700283    -0.20970
C1252       C  0.69783817  0.40154278  0.40143817    -0.09010
C1253       C  0.73559276  0.45079526  0.39623664     0.29850
C1254       C  0.78217810  0.47073176  0.40162230    -0.20970
C1255       C  0.79246887  0.44292918  0.41331593    -0.09020
C1256       C  0.75485263  0.39601857  0.42257917     0.29860
F1257       F  0.76212092  0.36788831  0.43582436    -0.19540
H1258       H  0.68192703  0.33951005  0.42373194     0.18220
H1259       H  0.81019578  0.00745077  0.39542338     0.18230
F1260       F  0.72786956  0.47815432  0.38223986    -0.19530
C1261       C  0.61794441  0.38077019  0.33430182    -0.20970
C1262       C  0.65452892  0.38901094  0.35200593    -0.09010
C1263       C  0.69409546  0.40304718  0.33545336     0.29850
C1264       C  0.69430456  0.40433467  0.30414595    -0.20970
C1265       C  0.65372836  0.38621936  0.28707509    -0.09020
C1266       C  0.61688099  0.37838245  0.30275672     0.29860
F1267       F  0.57760611  0.36420495  0.28790326    -0.19540
H1268       H  0.58820272  0.37384367  0.34386369     0.18220
H1269       H  0.72627440  0.41624532  0.29414992     0.18230
F1270       F  0.72987177  0.40730307  0.34820212    -0.19530
C1271       C  0.75780745  0.11140407  0.16167436    -0.20970
C1272       C  0.78988704  0.15608979  0.14716488    -0.09010
C1273       C  0.77327739  0.18004275  0.13818691     0.29850
C1274       C  0.72656587  0.15875072  0.14167853    -0.20970
C1275       C  0.69443582  0.11287303  0.15347242    -0.09020
C1276       C  0.71037763  0.08953626  0.16406447     0.29860
F1277       F  0.68030350  0.04601162  0.17729874    -0.19540
H1278       H  0.76832540  0.09209886  0.17024113     0.18220
H1279       H  0.71504985  0.17770879  0.13408184     0.18230
F1280       F  0.80104043  0.22231691  0.12323241    -0.19530
C1281       C  0.89413170  0.29106030  0.18069651    -0.20970
C1282       C  0.92178999  0.32674757  0.15877475    -0.09010
C1283       C  0.92752012  0.31477830  0.13067582     0.29850
C1284       C  0.90287495  0.26743130  0.12373975    -0.20970
C1285       C  0.87333924  0.23031073  0.14518295    -0.09020
C1286       C  0.87057735  0.24383091  0.17425872     0.29860
F1287       F  0.84348924  0.21089216  0.19628382    -0.19540
H1288       H  0.88958348  0.29961098  0.20277407     0.18220
H1289       H  0.90599152  0.26140632  0.10071516     0.18230
F1290       F  0.95389800  0.34839919  0.10887523    -0.19530
C1291       C  0.83467618  0.10465029  0.14117471    -0.20970
C1292       C  0.85553320  0.15041435  0.15169004    -0.09010
C1293       C  0.89389769  0.17138464  0.17245771     0.29850
C1294       C  0.91014286  0.14795078  0.18134260    -0.20970
C1295       C  0.89107816  0.10445981  0.16900057    -0.09020
C1296       C  0.85282316  0.08260592  0.14900681     0.29860
F1297       F  0.83335406  0.04020058  0.13668994    -0.19540
H1298       H  0.80537617  0.08675497  0.12541081     0.18220
H1299       H  0.94001600  0.16549329  0.19664901     0.18230
F1300       F  0.91813493  0.21522198  0.18377568    -0.19530
C1301       C  0.75534885  0.09706487  0.99584945    -0.20970
C1302       C  0.79266557  0.14460627  0.48717522    -0.09010
C1303       C  0.78134989  0.16582381  0.46675517     0.29850
C1304       C  0.73492605  0.14656236  0.46319201    -0.20970
C1305       C  0.69826554  0.10420019  0.47815607    -0.09020
C1306       C  0.70868754  0.07789184  0.49278593     0.29860
F1307       F  0.67447941  0.03503339  0.00570193    -0.19540
H1308       H  0.76220353  0.07729886  0.00911827     0.18220
H1309       H  0.72800241  0.16565926  0.44903674     0.18230
F1310       F  0.81480796  0.20575526  0.45079736    -0.19530
C1311       C  0.85251428  0.24627451  0.50769435    -0.20970
C1312       C  0.87252456  0.22686157  0.49786550    -0.09010
C1313       C  0.91977346  0.25944941  0.48800649     0.29850
C1314       C  0.94300516  0.30806525  0.48496782    -0.20970
C1315       C  0.92038040  0.32530523  0.49241491    -0.09020
C1316       C  0.87543779  0.29405952  0.50460664     0.29860
F1317       F  0.85303833  0.30968462  0.51300997    -0.19540
H1318       H  0.81759987  0.22362632  0.01706341     0.18220
H1319       H  0.97821843  0.33203972  0.47600948     0.17970
F1320       F  0.94466708  0.24570775  0.48251028    -0.19530
C1321       C  0.87467243  0.09331250  0.49503997    -0.20970
C1322       C  0.89690160  0.10721550  0.46694377    -0.09010
C1323       C  0.89681839  0.13870001  0.44863989     0.29850
C1324       C  0.87802036  0.15846599  0.45972621    -0.20970
C1325       C  0.86133720  0.14927068  0.48975214    -0.09020
C1326       C  0.85647228  0.11288788  0.00610352     0.29860
F1327       F  0.83288985  0.09432864  0.03260487    -0.19540
H1328       H  0.87130225  0.06678880  0.00891381     0.18220
H1329       H  0.87821527  0.18255252  0.44527294     0.18230
F1330       F  0.91614965  0.15159841  0.42066964    -0.19530
C1331       C  0.79856599  0.15055298  0.05283657    -0.20970
C1332       C  0.83943340  0.16820623  0.03740035    -0.09010
C1333       C  0.87949652  0.18541275  0.05517708     0.29850
C1334       C  0.87787867  0.18460254  0.08682382    -0.20970
C1335       C  0.83744444  0.16959611  0.10197409    -0.09020
C1336       C  0.79620202  0.14707123  0.08397011     0.29860
F1337       F  0.75229775  0.11946107  0.09531403    -0.19540
H1338       H  0.76740227  0.13975216  0.04138960     0.18220
H1339       H  0.90945940  0.19879337  0.09961966     0.18230
F1340       F  0.92055734  0.20374758  0.04192077    -0.19530
C1341       C  0.84210525  0.17228909  0.50230578    -0.02150
C1342       C  0.83940099  0.17657825  0.63693131    -0.02150
C1343       C  0.64833879  0.37577603  0.88676492    -0.02150
C1344       C  0.64994906  0.37663237  0.75248606    -0.02150
O1345       O  0.84751923  0.43648915  0.93149932    -0.74950
O1346       O  0.87519888  0.00215691  0.90346482    -0.53860
C1347       C  0.84163827  0.46205285  0.91612051     0.78780
O1348       O  0.99312096  0.02987723  0.54160214    -0.59550
O1349       O  0.52752141  0.49771838  0.53732819    -0.52580
C1350       C  0.01104922  0.01288033  0.55326863     0.70790
O1351       O  0.93368646  0.07740303  0.98170889    -0.74110
O1352       O  0.92777111  0.08615465  0.93099214    -0.54680
C1353       C  0.92106392  0.08931652  0.95896415     0.76790
O1354       O  0.91135381  0.37602706  0.96917098    -0.59260
O1355       O  0.98213300  0.40942566  0.99146607    -0.52380
C1356       C  0.93968472  0.37359939  0.98394403     0.73390
Zr1357     Zr  0.90810200  0.43351562  0.94556681     2.54710
O1358       O  0.84153135  0.38155649  0.97909116    -0.79820
O1359       O  0.86958761  0.37355483  0.90640888    -0.93240
Zr1360     Zr  0.97256097  0.04661472  0.99485434     2.64680
O1361       O  0.90206252  0.00299921  0.52543460    -0.98190
O1362       O  0.51203161  0.11751844  0.52503616    -0.80250
O1363       O  0.92368130  0.00515697  0.95275553    -0.83610
O1364       O  0.95611167  0.47394153  0.98888062    -2.18320
O1365       O  0.54617902  0.45862829  0.90650148    -0.67000
O1366       O  0.56101760  0.46089391  0.95736895    -0.51570
C1367       C  0.56115014  0.45018363  0.92985049     0.71770
O1368       O  0.58204766  0.17305423  0.92004084    -0.59910
O1369       O  0.51060776  0.13902073  0.89825960    -0.51890
C1370       C  0.55300068  0.17494953  0.90580077     0.73570
O1371       O  0.64514164  0.11470941  0.96192776    -0.71310
O1372       O  0.61537672  0.04606972  0.98712113    -0.49980
C1373       C  0.64981040  0.08727746  0.97614590     0.74950
O1374       O  0.49947008  0.02226745  0.84769825    -0.66630
O1375       O  0.96330302  0.05253647  0.85226718    -0.53830
C1376       C  0.98125015  0.03920810  0.83617994     0.73340
Zr1377     Zr  0.51640822  0.99930823  0.89375864     2.77540
O1378       O  0.58686499  0.04047551  0.86338362    -0.97380
O1379       O  0.97284585  0.42958330  0.86200676    -0.78200
Zr1380     Zr  0.58282682  0.11357449  0.94339160     2.70070
O1381       O  0.64749079  0.16033398  0.90793463    -0.79450
O1382       O  0.62178962  0.17550025  0.98121705    -0.98540
Zr1383     Zr  0.96076008  0.05410644  0.90861439     2.21500
Zr1384     Zr  0.53008702  0.99408569  0.98074063     2.11130
O1385       O  0.56619546  0.04123353  0.93552683    -2.47220
O1386       O  0.53398615  0.07264474  0.90022674    -0.79240
O1387       O  0.98009176  0.45205689  0.93777201    -0.71440
O1388       O  0.51068457  0.09538683  0.95187128    -2.32400
O1389       O  0.94345467  0.48032506  0.90081291    -2.28610
O1390       O  0.54647000  0.06714705  0.98820633    -0.73200
H1391       H  0.94103291  0.45386283  0.00663016     0.78800
H1392       H  0.51569386  0.12383522  0.95560279     0.79880
H1393       H  0.59410397  0.04634494  0.93074975     0.82110
H1394       H  0.92294212  0.46409465  0.88348743     0.79720
H1395       H  0.53716776  0.14364473  0.51182372     0.42750
H1396       H  0.62561734  0.16175728  0.99918442     0.41720
H1397       H  0.64322704  0.13663046  0.89473919     0.41400
H1398       H  0.61030631  0.04397337  0.87693476     0.39330
H1399       H  0.95445854  0.40254861  0.87646403     0.42470
H1400       H  0.84822221  0.37677991  0.89585353     0.37250
H1401       H  0.84489038  0.40308265  0.99397811     0.43370
H1402       H  0.89797489  0.47566863  0.53399580     0.39780
H1403       H  0.57893487  0.01696103  0.84826418     0.44700
H1404       H  0.84848104  0.34310636  0.91766643     0.43420
H1405       H  0.91121958  0.02356828  0.54300834     0.43560
H1406       H  0.65397611  0.20003498  0.97346376     0.43920
O1407       O  0.92193413  0.06971611  0.65258771    -0.74950
O1408       O  0.92640503  0.08543221  0.70301386    -0.53860
C1409       C  0.91405759  0.08462799  0.67537904     0.78780
O1410       O  0.91295917  0.37677332  0.68088637    -0.59550
O1411       O  0.97843843  0.41081660  0.65274196    -0.52580
C1412       C  0.93930569  0.37473082  0.66445072     0.70790
O1413       O  0.84795547  0.43460734  0.71530410    -0.74110
O1414       O  0.87784992  0.00494694  0.73634400    -0.54680
C1415       C  0.84364784  0.46212336  0.72821957     0.76790
O1416       O  0.98968339  0.02718771  0.59746302    -0.59260
O1417       O  0.52652084  0.49763361  0.60455615    -0.52380
C1418       C  0.00968668  0.01206034  0.58724657     0.73390
Zr1419     Zr  0.96507215  0.04296055  0.64201677     2.54710
O1420       O  0.89389049  0.99344762  0.61134832    -0.79820
O1421       O  0.49919834  0.11139709  0.60874364    -0.93240
Zr1422     Zr  0.90856159  0.43502140  0.69754720     2.64680
O1423       O  0.84187133  0.38533225  0.66314170    -0.98190
O1424       O  0.87059747  0.37385680  0.73701082    -0.80250
O1425       O  0.92142166  0.00489255  0.68659748    -0.83610
O1426       O  0.95180300  0.47228395  0.65223450    -2.18320
O1427       O  0.64146823  0.12108153  0.66962181    -0.67000
O1428       O  0.61199120  0.04887875  0.65218579    -0.51570
C1429       C  0.64598586  0.09281912  0.65820806     0.71770
O1430       O  0.50313032  0.02651750  0.79187112    -0.59910
O1431       O  0.96442510  0.05415979  0.78500542    -0.51890
C1432       C  0.98267100  0.04094577  0.80219168     0.73570
O1433       O  0.56317728  0.47810292  0.73632766    -0.71310
O1434       O  0.56191533  0.46589510  0.68559618    -0.49980
C1435       C  0.57226748  0.46465123  0.71335774     0.74950
O1436       O  0.57933161  0.17625316  0.71116678    -0.66630
O1437       O  0.51212673  0.14207198  0.73742808    -0.53830
C1438       C  0.55238555  0.17825449  0.72693270     0.73340
Zr1439     Zr  0.58029945  0.11692428  0.69140832     2.77540
O1440       O  0.64572441  0.16269826  0.72708034    -0.97380
O1441       O  0.61817439  0.18002965  0.65336008    -0.78200
Zr1442     Zr  0.52279576  0.00768273  0.74673711     2.70070
O1443       O  0.59313888  0.05181577  0.77836023    -0.79450
O1444       O  0.98258292  0.43648875  0.77817244    -0.98540
Zr1445     Zr  0.96218155  0.05704590  0.72845255     2.21500
Zr1446     Zr  0.52758706  0.99576596  0.66072923     2.11130
O1447       O  0.56792959  0.04731779  0.70304883    -2.47220
O1448       O  0.53727460  0.07922165  0.73674941    -0.79240
O1449       O  0.54044167  0.06652823  0.64910732    -0.71440
O1450       O  0.94804234  0.48541493  0.73973911    -2.32400
O1451       O  0.50629605  0.09541304  0.68295335    -2.28610
O1452       O  0.98237330  0.45622227  0.70542480    -0.73200
H1453       H  0.93598838  0.45090450  0.63538275     0.78800
H1454       H  0.92901944  0.46987780  0.75760611     0.79880
H1455       H  0.59749957  0.05499759  0.70724720     0.82110
H1456       H  0.50983937  0.12303730  0.67812565     0.79720
H1457       H  0.85864516  0.38343561  0.75165724     0.42750
H1458       H  0.97326900  0.41137307  0.76400315     0.41720
H1459       H  0.60333023  0.08388880  0.77944647     0.41400
H1460       H  0.65399578  0.14269884  0.73163006     0.39330
H1461       H  0.59485601  0.16699432  0.63667106     0.42470
H1462       H  0.50524751  0.13607444  0.62188414     0.37250
H1463       H  0.86893479  0.47095213  0.62604101     0.43370
H1464       H  0.85370621  0.37928731  0.64593154     0.39780
H1465       H  0.67217584  0.18949888  0.71488562     0.44700
H1466       H  0.97300433  0.10214649  0.59530883     0.43420
H1467       H  0.82040673  0.35444155  0.67388189     0.43560
H1468       H  0.50764240  0.44182135  0.79093543     0.43920
C1469       C  0.61725141  0.30843865  0.71670838    -0.20970
C1470       C  0.61594907  0.32224916  0.74598791    -0.09010
C1471       C  0.58891129  0.28526394  0.76824495     0.29850
C1472       C  0.56571940  0.23816758  0.76120301    -0.20970
C1473       C  0.56980576  0.22618736  0.73262775    -0.09020
C1474       C  0.59478768  0.26153759  0.71012387     0.29860
F1475       F  0.59846553  0.25093172  0.68177449    -0.19540
H1476       H  0.63741764  0.33485563  0.69895123     0.18220
H1477       H  0.54699257  0.21131183  0.77889328     0.18230
F1478       F  0.58650144  0.29304016  0.79753957    -0.19530
C1479       C  0.57567111  0.40103163  0.70833981    -0.20970
C1480       C  0.59540092  0.44526751  0.71958458    -0.09010
C1481       C  0.63487750  0.46882084  0.73846985     0.29850
C1482       C  0.65374195  0.44769676  0.74643873    -0.20970
C1483       C  0.63278255  0.40139831  0.73696127    -0.09020
C1484       C  0.59280861  0.37852634  0.71736233     0.29860
F1485       F  0.56732971  0.33352605  0.70788265    -0.19540
H1486       H  0.54464264  0.38227453  0.69399658     0.18220
H1487       H  0.68361759  0.46671850  0.76176857     0.18230
F1488       F  0.65469971  0.51194043  0.74972454    -0.19530
C1489       C  0.76302547  0.39494214  0.74364963    -0.20970
C1490       C  0.79521968  0.44177898  0.73348446    -0.09010
C1491       C  0.77953304  0.46620327  0.72569707     0.29850
C1492       C  0.73207999  0.44392947  0.72856263    -0.20970
C1493       C  0.69951929  0.39766794  0.74115219    -0.09020
C1494       C  0.71640008  0.37332043  0.74798172     0.29860
F1495       F  0.68917345  0.32997639  0.76159004    -0.19540
H1496       H  0.77448546  0.37535222  0.74944668     0.18220
H1497       H  0.72208376  0.46416704  0.72143855     0.18230
F1498       F  0.80984814  0.01126374  0.71472715    -0.19530
C1499       C  0.59877519  0.24662497  0.87369358    -0.20970
C1500       C  0.57018775  0.22255235  0.89867171    -0.09010
C1501       C  0.56570441  0.24706760  0.91959237     0.29850
C1502       C  0.58996697  0.29547970  0.91538432    -0.20970
C1503       C  0.61834018  0.32071555  0.88960017    -0.09020
C1504       C  0.62301790  0.29471620  0.86925069     0.29860
F1505       F  0.65305979  0.31498061  0.84585052    -0.19540
H1506       H  0.60429497  0.22851547  0.85821186     0.18220
H1507       H  0.58753813  0.31344530  0.93301627     0.18230
F1508       F  0.53979509  0.22472306  0.94495648    -0.19530
C1509       C  0.64677003  0.42973345  0.92308871    -0.20970
C1510       C  0.62302702  0.39107279  0.90285070    -0.09010
C1511       C  0.57443913  0.36641375  0.89808465     0.29850
C1512       C  0.55433845  0.38528357  0.90749572    -0.20970
C1513       C  0.58053919  0.42706562  0.92401945    -0.09020
C1514       C  0.62619701  0.44792623  0.93300829     0.29860
F1515       F  0.65205012  0.98769666  0.94988901    -0.19540
H1516       H  0.68184105  0.44749766  0.93118316     0.18220
H1517       H  0.51813581  0.36734126  0.90159157     0.18230
F1518       F  0.54596376  0.32421061  0.88369457    -0.19530
C1519       C  0.70869246  0.37609332  0.91700280    -0.20970
C1520       C  0.69783818  0.40154278  0.90143816    -0.09010
C1521       C  0.73559278  0.45079526  0.89623663     0.29850
C1522       C  0.78217812  0.47073176  0.90162228    -0.20970
C1523       C  0.79246889  0.44292917  0.91331590    -0.09020
C1524       C  0.75485264  0.39601856  0.92257913     0.29860
F1525       F  0.76212093  0.36788829  0.93582431    -0.19540
H1526       H  0.68192706  0.33951003  0.92373190     0.18220
H1527       H  0.81019578  0.00745077  0.89542336     0.18230
F1528       F  0.72786958  0.47815432  0.88223984    -0.19530
C1529       C  0.61794443  0.38077022  0.83430182    -0.20970
C1530       C  0.65452893  0.38901096  0.85200592    -0.09010
C1531       C  0.69409545  0.40304716  0.83545336     0.29850
C1532       C  0.69430456  0.40433466  0.80414594    -0.20970
C1533       C  0.65372836  0.38621937  0.78707509    -0.09020
C1534       C  0.61688100  0.37838248  0.80275672     0.29860
F1535       F  0.57760613  0.36420500  0.78790327    -0.19540
H1536       H  0.58820275  0.37384371  0.84386370     0.18220
H1537       H  0.72627440  0.41624529  0.79414992     0.18230
F1538       F  0.72987173  0.40730298  0.84820212    -0.19530
C1539       C  0.75780744  0.11140407  0.66167436    -0.20970
C1540       C  0.78988703  0.15608979  0.64716488    -0.09010
C1541       C  0.77327738  0.18004274  0.63818690     0.29850
C1542       C  0.72656586  0.15875071  0.64167852    -0.20970
C1543       C  0.69443581  0.11287303  0.65347242    -0.09020
C1544       C  0.71037762  0.08953625  0.66406447     0.29860
F1545       F  0.68030349  0.04601163  0.67729874    -0.19540
H1546       H  0.76832539  0.09209886  0.67024114     0.18220
H1547       H  0.71504984  0.17770878  0.63408184     0.18230
F1548       F  0.80104041  0.22231690  0.62323241    -0.19530
C1549       C  0.89413168  0.29106030  0.68069651    -0.20970
C1550       C  0.92178998  0.32674757  0.65877474    -0.09010
C1551       C  0.92752011  0.31477830  0.63067582     0.29850
C1552       C  0.90287494  0.26743130  0.62373975    -0.20970
C1553       C  0.87333922  0.23031073  0.64518295    -0.09020
C1554       C  0.87057734  0.24383091  0.67425872     0.29860
F1555       F  0.84348922  0.21089216  0.69628382    -0.19540
H1556       H  0.88958346  0.29961098  0.70277407     0.18220
H1557       H  0.90599152  0.26140632  0.60071516     0.18230
F1558       F  0.95389799  0.34839919  0.60887523    -0.19530
C1559       C  0.83467617  0.10465029  0.64117471    -0.20970
C1560       C  0.85553319  0.15041435  0.65169004    -0.09010
C1561       C  0.89389768  0.17138464  0.67245771     0.29850
C1562       C  0.91014284  0.14795078  0.68134261    -0.20970
C1563       C  0.89107815  0.10445982  0.66900057    -0.09020
C1564       C  0.85282315  0.08260592  0.64900681     0.29860
F1565       F  0.83335405  0.04020058  0.63668994    -0.19540
H1566       H  0.80537616  0.08675497  0.62541081     0.18220
H1567       H  0.94001598  0.16549329  0.69664901     0.18230
F1568       F  0.91813491  0.21522198  0.68377569    -0.19530
C1569       C  0.75534885  0.09706487  0.49584945    -0.20970
C1570       C  0.79266557  0.14460627  0.98717522    -0.09010
C1571       C  0.78134989  0.16582380  0.96675517     0.29850
C1572       C  0.73492605  0.14656235  0.96319201    -0.20970
C1573       C  0.69826554  0.10420019  0.97815608    -0.09020
C1574       C  0.70868754  0.07789184  0.99278593     0.29860
F1575       F  0.67447941  0.03503339  0.50570192    -0.19540
H1576       H  0.76220353  0.07729886  0.50911826     0.18220
H1577       H  0.72800241  0.16565925  0.94903674     0.18230
F1578       F  0.81480796  0.20575524  0.95079736    -0.19530
C1579       C  0.85251428  0.24627450  0.00769434    -0.20970
C1580       C  0.87252456  0.22686157  0.99786549    -0.09010
C1581       C  0.91977347  0.25944940  0.98800649     0.29850
C1582       C  0.94300516  0.30806524  0.98496781    -0.20970
C1583       C  0.92038040  0.32530522  0.99241491    -0.09020
C1584       C  0.87543779  0.29405952  0.00460663     0.29860
F1585       F  0.85303833  0.30968462  0.01300996    -0.19540
H1586       H  0.81759987  0.22362632  0.51706341     0.18220
H1587       H  0.97821844  0.33203971  0.97600948     0.17970
F1588       F  0.94466708  0.24570774  0.98251028    -0.19530
C1589       C  0.87467242  0.09331249  0.99503998    -0.20970
C1590       C  0.89690159  0.10721549  0.96694377    -0.09010
C1591       C  0.89681839  0.13870000  0.94863990     0.29850
C1592       C  0.87802035  0.15846598  0.95972621    -0.20970
C1593       C  0.86133720  0.14927067  0.98975214    -0.09020
C1594       C  0.85647228  0.11288788  0.50610352     0.29860
F1595       F  0.83288985  0.09432864  0.53260486    -0.19540
H1596       H  0.87130226  0.06678881  0.50891380     0.18220
H1597       H  0.87821527  0.18255251  0.94527294     0.18230
F1598       F  0.91614965  0.15159840  0.92066964    -0.19530
C1599       C  0.79856599  0.15055298  0.55283657    -0.20970
C1600       C  0.83943339  0.16820623  0.53740035    -0.09010
C1601       C  0.87949652  0.18541275  0.55517709     0.29850
C1602       C  0.87787866  0.18460254  0.58682382    -0.20970
C1603       C  0.83744444  0.16959611  0.60197409    -0.09020
C1604       C  0.79620201  0.14707122  0.58397011     0.29860
F1605       F  0.75229774  0.11946106  0.59531403    -0.19540
H1606       H  0.76740226  0.13975215  0.54138960     0.18220
H1607       H  0.90945939  0.19879337  0.59961966     0.18230
F1608       F  0.92055733  0.20374759  0.54192077    -0.19530
C1609       C  0.84210525  0.67228908  0.00230578    -0.02150
C1610       C  0.83940101  0.67657825  0.13693131    -0.02150
C1611       C  0.64833879  0.87577602  0.38676493    -0.02150
C1612       C  0.64994906  0.87663236  0.25248606    -0.02150
O1613       O  0.84751921  0.93648916  0.43149934    -0.74950
O1614       O  0.87519887  0.50215691  0.40346482    -0.53860
C1615       C  0.84163825  0.96205286  0.41612052     0.78780
O1616       O  0.99312097  0.52987722  0.04160214    -0.59550
O1617       O  0.52752140  0.99771836  0.03732819    -0.52580
C1618       C  0.01104923  0.51288032  0.05326863     0.70790
O1619       O  0.93368649  0.57740306  0.48170888    -0.74110
O1620       O  0.92777111  0.58615465  0.43099213    -0.54680
C1621       C  0.92106393  0.58931654  0.45896415     0.76790
O1622       O  0.91135381  0.87602707  0.46917098    -0.59260
O1623       O  0.98213300  0.90942567  0.49146607    -0.52380
C1624       C  0.93968472  0.87359939  0.48394403     0.73390
Zr1625     Zr  0.90810199  0.93351562  0.44556682     2.54710
O1626       O  0.84153134  0.88155647  0.47909115    -0.79820
O1627       O  0.86958760  0.87355483  0.40640888    -0.93240
Zr1628     Zr  0.97256100  0.54661476  0.49485433     2.64680
O1629       O  0.90206252  0.50299919  0.02543460    -0.98190
O1630       O  0.51203163  0.61751844  0.02503615    -0.80250
O1631       O  0.92368131  0.50515699  0.45275554    -0.83610
O1632       O  0.95611166  0.97394154  0.48888063    -2.18320
O1633       O  0.54617901  0.95862830  0.40650149    -0.67000
O1634       O  0.56101760  0.96089392  0.45736896    -0.51570
C1635       C  0.56115014  0.95018364  0.42985050     0.71770
O1636       O  0.58204767  0.67305421  0.42004077    -0.59910
O1637       O  0.51060774  0.63902072  0.39825959    -0.51890
C1638       C  0.55300068  0.67494951  0.40580073     0.73570
O1639       O  0.64514165  0.61470941  0.46192774    -0.71310
O1640       O  0.61537673  0.54606973  0.48712112    -0.49980
C1641       C  0.64981040  0.58727747  0.47614589     0.74950
O1642       O  0.49947006  0.52226743  0.34769825    -0.66630
O1643       O  0.96330301  0.55253646  0.35226717    -0.53830
C1644       C  0.98125014  0.53920809  0.33617994     0.73340
Zr1645     Zr  0.51640820  0.49930821  0.39375864     2.77540
O1646       O  0.58686495  0.54047547  0.36338362    -0.97380
O1647       O  0.97284582  0.92958328  0.36200677    -0.78200
Zr1648     Zr  0.58282682  0.61357448  0.44339158     2.70070
O1649       O  0.64749082  0.66033398  0.40793463    -0.79450
O1650       O  0.62178959  0.67550025  0.48121703    -0.98540
Zr1651     Zr  0.96076008  0.55410643  0.40861439     2.21500
Zr1652     Zr  0.53008702  0.49408570  0.48074063     2.11130
O1653       O  0.56619545  0.54123352  0.43552683    -2.47220
O1654       O  0.53398614  0.57264472  0.40022673    -0.79240
O1655       O  0.98009175  0.95205689  0.43777202    -0.71440
O1656       O  0.51068458  0.59538684  0.45187126    -2.32400
O1657       O  0.94345466  0.98032506  0.40081291    -2.28610
O1658       O  0.54647002  0.56714707  0.48820632    -0.73200
H1659       H  0.94103290  0.95386284  0.50663017     0.78800
H1660       H  0.51569388  0.62383524  0.45560277     0.79880
H1661       H  0.59410396  0.54634492  0.43074974     0.82110
H1662       H  0.92294210  0.96409464  0.38348743     0.79720
H1663       H  0.53716782  0.64364472  0.01182374     0.42750
H1664       H  0.62561733  0.66175730  0.49918440     0.41720
H1665       H  0.64322700  0.63663047  0.39473914     0.41400
H1666       H  0.61030629  0.54397335  0.37693476     0.39330
H1667       H  0.95445854  0.90254860  0.37646404     0.42470
H1668       H  0.84822217  0.87677989  0.39585355     0.37250
H1669       H  0.84489038  0.90308262  0.49397812     0.43370
H1670       H  0.89797487  0.97566857  0.03399580     0.39780
H1671       H  0.57893484  0.51696098  0.34826418     0.44700
H1672       H  0.84848107  0.84310637  0.41766642     0.43420
H1673       H  0.91121958  0.52356827  0.04300834     0.43560
H1674       H  0.65397608  0.70003500  0.47346373     0.43920
O1675       O  0.92193414  0.56971611  0.15258771    -0.74950
O1676       O  0.92640504  0.58543221  0.20301386    -0.53860
C1677       C  0.91405760  0.58462799  0.17537904     0.78780
O1678       O  0.91295918  0.87677332  0.18088637    -0.59550
O1679       O  0.97843844  0.91081660  0.15274196    -0.52580
C1680       C  0.93930570  0.87473082  0.16445072     0.70790
O1681       O  0.84795547  0.93460733  0.21530410    -0.74110
O1682       O  0.87784993  0.50494694  0.23634400    -0.54680
C1683       C  0.84364785  0.96212336  0.22821958     0.76790
O1684       O  0.98968340  0.52718771  0.09746302    -0.59260
O1685       O  0.52652084  0.99763360  0.10455615    -0.52380
C1686       C  0.00968669  0.51206034  0.08724657     0.73390
Zr1687     Zr  0.96507216  0.54296055  0.14201677     2.54710
O1688       O  0.89389051  0.49344763  0.11134831    -0.79820
O1689       O  0.49919838  0.61139711  0.10874364    -0.93240
Zr1690     Zr  0.90856160  0.93502140  0.19754721     2.64680
O1691       O  0.84187134  0.88533225  0.16314170    -0.98190
O1692       O  0.87059748  0.87385679  0.23701082    -0.80250
O1693       O  0.92142168  0.50489254  0.18659747    -0.83610
O1694       O  0.95180300  0.97228395  0.15223450    -2.18320
O1695       O  0.64146825  0.62108153  0.16962181    -0.67000
O1696       O  0.61199122  0.54887875  0.15218579    -0.51570
C1697       C  0.64598588  0.59281912  0.15820806     0.71770
O1698       O  0.50313031  0.52651749  0.29187112    -0.59910
O1699       O  0.96442510  0.55415978  0.28500542    -0.51890
C1700       C  0.98267099  0.54094576  0.30219168     0.73570
O1701       O  0.56317730  0.97810292  0.23632766    -0.71310
O1702       O  0.56191533  0.96589510  0.18559618    -0.49980
C1703       C  0.57226749  0.96465123  0.21335774     0.74950
O1704       O  0.57933162  0.67625315  0.21116678    -0.66630
O1705       O  0.51212673  0.64207197  0.23742808    -0.53830
C1706       C  0.55238555  0.67825448  0.22693270     0.73340
Zr1707     Zr  0.58029946  0.61692428  0.19140832     2.77540
O1708       O  0.64572442  0.66269827  0.22708034    -0.97380
O1709       O  0.61817440  0.68002965  0.15336009    -0.78200
Zr1710     Zr  0.52279577  0.50768273  0.24673711     2.70070
O1711       O  0.59313889  0.55181577  0.27836023    -0.79450
O1712       O  0.98258294  0.93648877  0.27817245    -0.98540
Zr1713     Zr  0.96218156  0.55704589  0.22845254     2.21500
Zr1714     Zr  0.52758708  0.49576596  0.16072923     2.11130
O1715       O  0.56792961  0.54731779  0.20304884    -2.47220
O1716       O  0.53727461  0.57922165  0.23674941    -0.79240
O1717       O  0.54044169  0.56652823  0.14910732    -0.71440
O1718       O  0.94804235  0.98541493  0.23973911    -2.32400
O1719       O  0.50629606  0.59541304  0.18295335    -2.28610
O1720       O  0.98237331  0.95622227  0.20542481    -0.73200
H1721       H  0.93598838  0.95090449  0.13538275     0.78800
H1722       H  0.92901945  0.96987780  0.25760611     0.79880
H1723       H  0.59749958  0.55499759  0.20724721     0.82110
H1724       H  0.50983938  0.62303730  0.17812565     0.79720
H1725       H  0.85864518  0.88343561  0.25165724     0.42750
H1726       H  0.97326903  0.91137308  0.26400316     0.41720
H1727       H  0.60333023  0.58388880  0.27944648     0.41400
H1728       H  0.65399579  0.64269884  0.23163006     0.39330
H1729       H  0.59485618  0.66699416  0.13667095     0.42470
H1730       H  0.50524758  0.63607446  0.12188415     0.37250
H1731       H  0.86893481  0.97095211  0.12604100     0.43370
H1732       H  0.85370622  0.87928731  0.14593155     0.39780
H1733       H  0.67217586  0.68949888  0.21488562     0.44700
H1734       H  0.97300436  0.60214652  0.09530884     0.43420
H1735       H  0.82040674  0.85444155  0.17388189     0.43560
H1736       H  0.50764244  0.94182138  0.29093543     0.43920
C1737       C  0.61725140  0.80843864  0.21670838    -0.20970
C1738       C  0.61594908  0.82224915  0.24598791    -0.09010
C1739       C  0.58891132  0.78526393  0.26824496     0.29850
C1740       C  0.56571943  0.73816758  0.26120302    -0.20970
C1741       C  0.56980576  0.72618735  0.23262776    -0.09020
C1742       C  0.59478767  0.76153758  0.21012388     0.29860
F1743       F  0.59846551  0.75093171  0.18177449    -0.19540
H1744       H  0.63741762  0.83485562  0.19895123     0.18220
H1745       H  0.54699262  0.71131182  0.27889330     0.18230
F1746       F  0.58650152  0.79304016  0.29753960    -0.19530
C1747       C  0.57567111  0.90103163  0.20833982    -0.20970
C1748       C  0.59540093  0.94526750  0.21958458    -0.09010
C1749       C  0.63487750  0.96882083  0.23846985     0.29850
C1750       C  0.65374195  0.94769676  0.24643874    -0.20970
C1751       C  0.63278255  0.90139830  0.23696128    -0.09020
C1752       C  0.59280861  0.87852633  0.21736233     0.29860
F1753       F  0.56732970  0.83352604  0.20788266    -0.19540
H1754       H  0.54464264  0.88227452  0.19399659     0.18220
H1755       H  0.68361759  0.96671850  0.26176857     0.18230
F1756       F  0.65469972  0.01194043  0.24972454    -0.19530
C1757       C  0.76302548  0.89494213  0.24364964    -0.20970
C1758       C  0.79521968  0.94177897  0.23348446    -0.09010
C1759       C  0.77953305  0.96620327  0.22569708     0.29850
C1760       C  0.73207999  0.94392946  0.22856264    -0.20970
C1761       C  0.69951929  0.89766793  0.24115220    -0.09020
C1762       C  0.71640009  0.87332043  0.24798173     0.29860
F1763       F  0.68917346  0.82997639  0.26159005    -0.19540
H1764       H  0.77448547  0.87535222  0.24944669     0.18220
H1765       H  0.72208376  0.96416703  0.22143855     0.18230
F1766       F  0.80984816  0.51126373  0.21472715    -0.19530
C1767       C  0.59877540  0.74662505  0.37369362    -0.20970
C1768       C  0.57018777  0.72255234  0.39867166    -0.09010
C1769       C  0.56570425  0.74706751  0.41959227     0.29850
C1770       C  0.58996682  0.79547963  0.41538424    -0.20970
C1771       C  0.61834020  0.82071555  0.38960017    -0.09020
C1772       C  0.62301811  0.79471628  0.36925076     0.29860
F1773       F  0.65306019  0.81498078  0.34585069    -0.19540
H1774       H  0.60429533  0.72851561  0.35821196     0.18220
H1775       H  0.58753785  0.81344516  0.43301617     0.18230
F1776       F  0.53979474  0.72472289  0.44495630    -0.19530
C1777       C  0.64677000  0.92973342  0.42308873    -0.20970
C1778       C  0.62302701  0.89107278  0.40285070    -0.09010
C1779       C  0.57443913  0.86641377  0.39808464     0.29850
C1780       C  0.55433845  0.88528359  0.40749571    -0.20970
C1781       C  0.58053919  0.92706562  0.42401945    -0.09020
C1782       C  0.62619699  0.94792621  0.43300831     0.29860
F1783       F  0.65205010  0.48769663  0.44988904    -0.19540
H1784       H  0.68184102  0.94749762  0.43118320     0.18220
H1785       H  0.51813582  0.86734130  0.40159155     0.18230
F1786       F  0.54596375  0.82421063  0.38369455    -0.19530
C1787       C  0.70869245  0.87609333  0.41700283    -0.20970
C1788       C  0.69783818  0.90154279  0.40143817    -0.09010
C1789       C  0.73559277  0.95079526  0.39623665     0.29850
C1790       C  0.78217810  0.97073176  0.40162230    -0.20970
C1791       C  0.79246887  0.94292918  0.41331593    -0.09020
C1792       C  0.75485263  0.89601857  0.42257917     0.29860
F1793       F  0.76212092  0.86788831  0.43582436    -0.19540
H1794       H  0.68192703  0.83951005  0.42373194     0.18220
H1795       H  0.81019578  0.50745077  0.39542337     0.18230
F1796       F  0.72786956  0.97815432  0.38223986    -0.19530
C1797       C  0.61794441  0.88077019  0.33430182    -0.20970
C1798       C  0.65452892  0.88901095  0.35200593    -0.09010
C1799       C  0.69409546  0.90304719  0.33545336     0.29850
C1800       C  0.69430456  0.90433468  0.30414595    -0.20970
C1801       C  0.65372836  0.88621936  0.28707509    -0.09020
C1802       C  0.61688099  0.87838245  0.30275672     0.29860
F1803       F  0.57760611  0.86420495  0.28790326    -0.19540
H1804       H  0.58820272  0.87384367  0.34386369     0.18220
H1805       H  0.72627441  0.91624532  0.29414992     0.18230
F1806       F  0.72987178  0.90730309  0.34820212    -0.19530
C1807       C  0.75780746  0.61140407  0.16167436    -0.20970
C1808       C  0.78988704  0.65608979  0.14716488    -0.09010
C1809       C  0.77327740  0.68004275  0.13818691     0.29850
C1810       C  0.72656588  0.65875072  0.14167853    -0.20970
C1811       C  0.69443582  0.61287303  0.15347242    -0.09020
C1812       C  0.71037764  0.58953625  0.16406446     0.29860
F1813       F  0.68030350  0.54601162  0.17729874    -0.19540
H1814       H  0.76832540  0.59209886  0.17024113     0.18220
H1815       H  0.71504986  0.67770879  0.13408185     0.18230
F1816       F  0.80104043  0.72231691  0.12323242    -0.19530
C1817       C  0.89413169  0.79106030  0.18069651    -0.20970
C1818       C  0.92178999  0.82674757  0.15877475    -0.09010
C1819       C  0.92752012  0.81477830  0.13067582     0.29850
C1820       C  0.90287496  0.76743130  0.12373975    -0.20970
C1821       C  0.87333924  0.73031074  0.14518295    -0.09020
C1822       C  0.87057735  0.74383091  0.17425872     0.29860
F1823       F  0.84348924  0.71089216  0.19628382    -0.19540
H1824       H  0.88958347  0.79961098  0.20277407     0.18220
H1825       H  0.90599154  0.76140632  0.10071517     0.18230
F1826       F  0.95389801  0.84839919  0.10887523    -0.19530
C1827       C  0.83467619  0.60465029  0.14117470    -0.20970
C1828       C  0.85553320  0.65041435  0.15169004    -0.09010
C1829       C  0.89389769  0.67138463  0.17245771     0.29850
C1830       C  0.91014285  0.64795078  0.18134260    -0.20970
C1831       C  0.89107816  0.60445981  0.16900057    -0.09020
C1832       C  0.85282317  0.58260593  0.14900680     0.29860
F1833       F  0.83335407  0.54020058  0.13668993    -0.19540
H1834       H  0.80537618  0.58675497  0.12541081     0.18220
H1835       H  0.94001599  0.66549328  0.19664901     0.18230
F1836       F  0.91813492  0.71522197  0.18377569    -0.19530
C1837       C  0.75534885  0.59706487  0.99584945    -0.20970
C1838       C  0.79266558  0.64460628  0.48717522    -0.09010
C1839       C  0.78134989  0.66582382  0.46675517     0.29850
C1840       C  0.73492606  0.64656236  0.46319201    -0.20970
C1841       C  0.69826555  0.60420019  0.47815607    -0.09020
C1842       C  0.70868755  0.57789184  0.49278592     0.29860
F1843       F  0.67447941  0.53503338  0.00570192    -0.19540
H1844       H  0.76220353  0.57729886  0.00911827     0.18220
H1845       H  0.72800242  0.66565926  0.44903674     0.18230
F1846       F  0.81480797  0.70575526  0.45079736    -0.19530
C1847       C  0.85251428  0.74627451  0.50769435    -0.20970
C1848       C  0.87252456  0.72686158  0.49786550    -0.09010
C1849       C  0.91977347  0.75944941  0.48800649     0.29850
C1850       C  0.94300516  0.80806525  0.48496782    -0.20970
C1851       C  0.92038040  0.82530523  0.49241491    -0.09020
C1852       C  0.87543779  0.79405952  0.50460664     0.29860
F1853       F  0.85303833  0.80968463  0.51300997    -0.19540
H1854       H  0.81759987  0.72362631  0.01706340     0.18220
H1855       H  0.97821844  0.83203972  0.47600948     0.17970
F1856       F  0.94466709  0.74570775  0.48251028    -0.19530
C1857       C  0.87467244  0.59331251  0.49503997    -0.20970
C1858       C  0.89690160  0.60721550  0.46694377    -0.09010
C1859       C  0.89681839  0.63870001  0.44863989     0.29850
C1860       C  0.87802036  0.65846599  0.45972621    -0.20970
C1861       C  0.86133721  0.64927068  0.48975214    -0.09020
C1862       C  0.85647229  0.61288788  0.00610352     0.29860
F1863       F  0.83288986  0.59432864  0.03260486    -0.19540
H1864       H  0.87130226  0.56678880  0.00891381     0.18220
H1865       H  0.87821527  0.68255252  0.44527294     0.18230
F1866       F  0.91614966  0.65159841  0.42066964    -0.19530
C1867       C  0.79856600  0.65055298  0.05283657    -0.20970
C1868       C  0.83943340  0.66820623  0.03740035    -0.09010
C1869       C  0.87949653  0.68541275  0.05517708     0.29850
C1870       C  0.87787867  0.68460254  0.08682382    -0.20970
C1871       C  0.83744445  0.66959611  0.10197409    -0.09020
C1872       C  0.79620202  0.64707123  0.08397011     0.29860
F1873       F  0.75229775  0.61946108  0.09531403    -0.19540
H1874       H  0.76740227  0.63975216  0.04138960     0.18220
H1875       H  0.90945940  0.69879337  0.09961965     0.18230
F1876       F  0.92055734  0.70374758  0.04192077    -0.19530
C1877       C  0.84210525  0.67228909  0.50230579    -0.02150
C1878       C  0.83940099  0.67657825  0.63693131    -0.02150
C1879       C  0.64833879  0.87577602  0.88676493    -0.02150
C1880       C  0.64994905  0.87663236  0.75248606    -0.02150
O1881       O  0.84751922  0.93648915  0.93149932    -0.74950
O1882       O  0.87519889  0.50215691  0.90346482    -0.53860
C1883       C  0.84163826  0.96205285  0.91612051     0.78780
O1884       O  0.99312097  0.52987724  0.54160214    -0.59550
O1885       O  0.52752140  0.99771837  0.53732819    -0.52580
C1886       C  0.01104923  0.51288034  0.55326863     0.70790
O1887       O  0.93368648  0.57740304  0.98170889    -0.74110
O1888       O  0.92777112  0.58615465  0.93099214    -0.54680
C1889       C  0.92106393  0.58931653  0.95896415     0.76790
O1890       O  0.91135381  0.87602706  0.96917097    -0.59260
O1891       O  0.98213299  0.90942566  0.99146607    -0.52380
C1892       C  0.93968471  0.87359938  0.98394402     0.73390
Zr1893     Zr  0.90810200  0.93351561  0.94556681     2.54710
O1894       O  0.84153133  0.88155646  0.97909113    -0.79820
O1895       O  0.86958762  0.87355484  0.90640886    -0.93240
Zr1896     Zr  0.97256099  0.54661474  0.99485434     2.64680
O1897       O  0.90206254  0.50299923  0.52543460    -0.98190
O1898       O  0.51203165  0.61751846  0.52503615    -0.80250
O1899       O  0.92368132  0.50515698  0.95275553    -0.83610
O1900       O  0.95611165  0.97394152  0.98888062    -2.18320
O1901       O  0.54617902  0.95862830  0.90650148    -0.67000
O1902       O  0.56101760  0.96089392  0.95736895    -0.51570
C1903       C  0.56115014  0.95018364  0.92985049     0.71770
O1904       O  0.58204767  0.67305422  0.92004081    -0.59910
O1905       O  0.51060776  0.63902072  0.89825959    -0.51890
C1906       C  0.55300069  0.67494952  0.90580076     0.73570
O1907       O  0.64514165  0.61470941  0.96192775    -0.71310
O1908       O  0.61537672  0.54606972  0.98712112    -0.49980
C1909       C  0.64981040  0.58727746  0.97614589     0.74950
O1910       O  0.49947007  0.52226744  0.84769825    -0.66630
O1911       O  0.96330302  0.55253647  0.85226718    -0.53830
C1912       C  0.98125015  0.53920810  0.83617994     0.73340
Zr1913     Zr  0.51640821  0.49930822  0.89375864     2.77540
O1914       O  0.58686497  0.54047548  0.86338362    -0.97380
O1915       O  0.97284585  0.92958331  0.86200675    -0.78200
Zr1916     Zr  0.58282683  0.61357448  0.94339159     2.70070
O1917       O  0.64749080  0.66033397  0.90793462    -0.79450
O1918       O  0.62178962  0.67550025  0.98121704    -0.98540
Zr1919     Zr  0.96076009  0.55410644  0.90861439     2.21500
Zr1920     Zr  0.53008703  0.49408569  0.98074063     2.11130
O1921       O  0.56619546  0.54123352  0.93552683    -2.47220
O1922       O  0.53398615  0.57264473  0.90022673    -0.79240
O1923       O  0.98009175  0.95205689  0.93777201    -0.71440
O1924       O  0.51068458  0.59538684  0.95187127    -2.32400
O1925       O  0.94345467  0.98032506  0.90081290    -2.28610
O1926       O  0.54647002  0.56714705  0.98820633    -0.73200
H1927       H  0.94103289  0.95386281  0.00663016     0.78800
H1928       H  0.51569387  0.62383523  0.95560278     0.79880
H1929       H  0.59410397  0.54634493  0.93074974     0.82110
H1930       H  0.92294212  0.96409465  0.88348742     0.79720
H1931       H  0.53716774  0.64364476  0.51182369     0.42750
H1932       H  0.62561734  0.66175728  0.99918441     0.41720
H1933       H  0.64322698  0.63663046  0.89473913     0.41400
H1934       H  0.61030630  0.54397336  0.87693476     0.39330
H1935       H  0.95445855  0.90254862  0.87646403     0.42470
H1936       H  0.84822220  0.87677990  0.89585353     0.37250
H1937       H  0.84489037  0.90308260  0.99397810     0.43370
H1938       H  0.89797488  0.97566861  0.53399580     0.39780
H1939       H  0.57893486  0.51696100  0.84826418     0.44700
H1940       H  0.84848108  0.84310637  0.91766640     0.43420
H1941       H  0.91121961  0.52356831  0.54300835     0.43560
H1942       H  0.65397611  0.70003498  0.97346374     0.43920
O1943       O  0.92193413  0.56971611  0.65258771    -0.74950
O1944       O  0.92640503  0.58543222  0.70301387    -0.53860
C1945       C  0.91405759  0.58462799  0.67537905     0.78780
O1946       O  0.91295917  0.87677332  0.68088637    -0.59550
O1947       O  0.97843843  0.91081660  0.65274196    -0.52580
C1948       C  0.93930568  0.87473081  0.66445072     0.70790
O1949       O  0.84795546  0.93460733  0.71530410    -0.74110
O1950       O  0.87784993  0.50494694  0.73634400    -0.54680
C1951       C  0.84364784  0.96212336  0.72821957     0.76790
O1952       O  0.98968340  0.52718772  0.59746302    -0.59260
O1953       O  0.52652083  0.99763360  0.60455615    -0.52380
C1954       C  0.00968669  0.51206035  0.58724657     0.73390
Zr1955     Zr  0.96507216  0.54296056  0.64201677     2.54710
O1956       O  0.89389050  0.49344762  0.61134832    -0.79820
O1957       O  0.49919834  0.61139709  0.60874363    -0.93240
Zr1958     Zr  0.90856159  0.93502140  0.69754721     2.64680
O1959       O  0.84187132  0.88533224  0.66314171    -0.98190
O1960       O  0.87059747  0.87385680  0.73701083    -0.80250
O1961       O  0.92142167  0.50489255  0.68659747    -0.83610
O1962       O  0.95180299  0.97228395  0.65223450    -2.18320
O1963       O  0.64146823  0.62108153  0.66962181    -0.67000
O1964       O  0.61199121  0.54887875  0.65218578    -0.51570
C1965       C  0.64598586  0.59281911  0.65820806     0.71770
O1966       O  0.50313031  0.52651750  0.79187112    -0.59910
O1967       O  0.96442510  0.55415979  0.78500542    -0.51890
C1968       C  0.98267100  0.54094577  0.80219168     0.73570
O1969       O  0.56317728  0.97810292  0.73632766    -0.71310
O1970       O  0.56191532  0.96589509  0.68559618    -0.49980
C1971       C  0.57226748  0.96465123  0.71335774     0.74950
O1972       O  0.57933161  0.67625316  0.71116678    -0.66630
O1973       O  0.51212673  0.64207197  0.73742808    -0.53830
C1974       C  0.55238555  0.67825448  0.72693270     0.73340
Zr1975     Zr  0.58029945  0.61692428  0.69140832     2.77540
O1976       O  0.64572441  0.66269826  0.72708034    -0.97380
O1977       O  0.61817440  0.68002965  0.65336009    -0.78200
Zr1978     Zr  0.52279576  0.50768273  0.74673711     2.70070
O1979       O  0.59313888  0.55181577  0.77836023    -0.79450
O1980       O  0.98258291  0.93648875  0.77817244    -0.98540
Zr1981     Zr  0.96218156  0.55704590  0.72845255     2.21500
Zr1982     Zr  0.52758707  0.49576596  0.66072923     2.11130
O1983       O  0.56792960  0.54731779  0.70304883    -2.47220
O1984       O  0.53727460  0.57922165  0.73674941    -0.79240
O1985       O  0.54044167  0.56652823  0.64910732    -0.71440
O1986       O  0.94804233  0.98541493  0.73973912    -2.32400
O1987       O  0.50629605  0.59541304  0.68295335    -2.28610
O1988       O  0.98237330  0.95622227  0.70542481    -0.73200
H1989       H  0.93598837  0.95090449  0.63538275     0.78800
H1990       H  0.92901944  0.96987780  0.75760611     0.79880
H1991       H  0.59749957  0.55499759  0.70724720     0.82110
H1992       H  0.50983937  0.62303730  0.67812565     0.79720
H1993       H  0.85864515  0.88343561  0.75165724     0.42750
H1994       H  0.97326900  0.91137307  0.76400315     0.41720
H1995       H  0.60333022  0.58388879  0.77944648     0.41400
H1996       H  0.65399578  0.64269884  0.73163006     0.39330
H1997       H  0.59485595  0.66699438  0.63667111     0.42470
H1998       H  0.50524750  0.63607444  0.62188414     0.37250
H1999       H  0.86893479  0.97095211  0.62604101     0.43370
H2000       H  0.85370620  0.87928731  0.64593155     0.39780
H2001       H  0.67217585  0.68949888  0.71488563     0.44700
H2002       H  0.97300434  0.60214649  0.59530882     0.43420
H2003       H  0.82040673  0.85444153  0.67388189     0.43560
H2004       H  0.50764240  0.94182135  0.79093543     0.43920
C2005       C  0.61725139  0.80843864  0.71670838    -0.20970
C2006       C  0.61594907  0.82224915  0.74598791    -0.09010
C2007       C  0.58891130  0.78526393  0.76824495     0.29850
C2008       C  0.56571941  0.73816758  0.76120302    -0.20970
C2009       C  0.56980576  0.72618736  0.73262775    -0.09020
C2010       C  0.59478766  0.76153759  0.71012387     0.29860
F2011       F  0.59846551  0.75093171  0.68177449    -0.19540
H2012       H  0.63741762  0.83485562  0.69895123     0.18220
H2013       H  0.54699259  0.71131182  0.77889329     0.18230
F2014       F  0.58650147  0.79304016  0.79753958    -0.19530
C2015       C  0.57567109  0.90103162  0.70833982    -0.20970
C2016       C  0.59540091  0.94526750  0.71958458    -0.09010
C2017       C  0.63487749  0.96882083  0.73846985     0.29850
C2018       C  0.65374194  0.94769676  0.74643873    -0.20970
C2019       C  0.63278253  0.90139830  0.73696128    -0.09020
C2020       C  0.59280859  0.87852632  0.71736234     0.29860
F2021       F  0.56732968  0.83352603  0.70788267    -0.19540
H2022       H  0.54464262  0.88227451  0.69399659     0.18220
H2023       H  0.68361758  0.96671850  0.76176857     0.18230
F2024       F  0.65469971  0.01194043  0.74972454    -0.19530
C2025       C  0.76302547  0.89494214  0.74364963    -0.20970
C2026       C  0.79521967  0.94177898  0.73348446    -0.09010
C2027       C  0.77953304  0.96620327  0.72569707     0.29850
C2028       C  0.73207998  0.94392947  0.72856263    -0.20970
C2029       C  0.69951928  0.89766794  0.74115220    -0.09020
C2030       C  0.71640008  0.87332043  0.74798172     0.29860
F2031       F  0.68917345  0.82997639  0.76159005    -0.19540
H2032       H  0.77448546  0.87535222  0.74944668     0.18220
H2033       H  0.72208375  0.96416703  0.72143854     0.18230
F2034       F  0.80984816  0.51126374  0.71472715    -0.19530
C2035       C  0.59877526  0.74662500  0.87369359    -0.20970
C2036       C  0.57018776  0.72255234  0.89867169    -0.09010
C2037       C  0.56570436  0.74706757  0.91959234     0.29850
C2038       C  0.58996692  0.79547967  0.91538429    -0.20970
C2039       C  0.61834018  0.82071555  0.88960017    -0.09020
C2040       C  0.62301797  0.79471623  0.86925071     0.29860
F2041       F  0.65305993  0.81498067  0.84585058    -0.19540
H2042       H  0.60429509  0.72851552  0.85821190     0.18220
H2043       H  0.58753803  0.81344524  0.93301624     0.18230
F2044       F  0.53979497  0.72472300  0.94495642    -0.19530
C2045       C  0.64677002  0.92973344  0.92308872    -0.20970
C2046       C  0.62302702  0.89107279  0.90285070    -0.09010
C2047       C  0.57443913  0.86641376  0.89808465     0.29850
C2048       C  0.55433845  0.88528357  0.90749572    -0.20970
C2049       C  0.58053919  0.92706562  0.92401945    -0.09020
C2050       C  0.62619701  0.94792623  0.93300830     0.29860
F2051       F  0.65205013  0.48769667  0.94988900    -0.19540
H2052       H  0.68184104  0.94749765  0.93118317     0.18220
H2053       H  0.51813581  0.86734128  0.90159157     0.18230
F2054       F  0.54596375  0.82421062  0.88369457    -0.19530
C2055       C  0.70869245  0.87609332  0.91700281    -0.20970
C2056       C  0.69783818  0.90154278  0.90143816    -0.09010
C2057       C  0.73559277  0.95079526  0.89623663     0.29850
C2058       C  0.78217811  0.97073176  0.90162228    -0.20970
C2059       C  0.79246888  0.94292917  0.91331591    -0.09020
C2060       C  0.75485263  0.89601856  0.92257914     0.29860
F2061       F  0.76212092  0.86788830  0.93582433    -0.19540
H2062       H  0.68192705  0.83951004  0.92373191     0.18220
H2063       H  0.81019579  0.50745077  0.89542335     0.18230
F2064       F  0.72786957  0.97815432  0.88223984    -0.19530
C2065       C  0.61794442  0.88077020  0.83430182    -0.20970
C2066       C  0.65452892  0.88901095  0.85200592    -0.09010
C2067       C  0.69409545  0.90304717  0.83545336     0.29850
C2068       C  0.69430455  0.90433467  0.80414594    -0.20970
C2069       C  0.65372835  0.88621937  0.78707509    -0.09020
C2070       C  0.61688099  0.87838247  0.80275672     0.29860
F2071       F  0.57760611  0.86420497  0.78790327    -0.19540
H2072       H  0.58820273  0.87384368  0.84386370     0.18220
H2073       H  0.72627439  0.91624530  0.79414992     0.18230
F2074       F  0.72987174  0.90730301  0.84820212    -0.19530
C2075       C  0.75780745  0.61140407  0.66167436    -0.20970
C2076       C  0.78988703  0.65608979  0.64716488    -0.09010
C2077       C  0.77327738  0.68004274  0.63818690     0.29850
C2078       C  0.72656586  0.65875071  0.64167852    -0.20970
C2079       C  0.69443581  0.61287303  0.65347242    -0.09020
C2080       C  0.71037763  0.58953625  0.66406447     0.29860
F2081       F  0.68030349  0.54601162  0.67729875    -0.19540
H2082       H  0.76832539  0.59209886  0.67024114     0.18220
H2083       H  0.71504984  0.67770878  0.63408183     0.18230
F2084       F  0.80104041  0.72231690  0.62323240    -0.19530
C2085       C  0.89413166  0.79106029  0.68069651    -0.20970
C2086       C  0.92178997  0.82674757  0.65877475    -0.09010
C2087       C  0.92752012  0.81477830  0.63067583     0.29850
C2088       C  0.90287495  0.76743130  0.62373976    -0.20970
C2089       C  0.87333923  0.73031073  0.64518296    -0.09020
C2090       C  0.87057733  0.74383091  0.67425872     0.29860
F2091       F  0.84348920  0.71089215  0.69628382    -0.19540
H2092       H  0.88958343  0.79961097  0.70277407     0.18220
H2093       H  0.90599155  0.76140632  0.60071518     0.18230
F2094       F  0.95389802  0.84839919  0.60887524    -0.19530
C2095       C  0.83467618  0.60465029  0.64117470    -0.20970
C2096       C  0.85553319  0.65041435  0.65169005    -0.09010
C2097       C  0.89389767  0.67138463  0.67245772     0.29850
C2098       C  0.91014284  0.64795077  0.68134262    -0.20970
C2099       C  0.89107815  0.60445981  0.66900058    -0.09020
C2100       C  0.85282316  0.58260593  0.64900681     0.29860
F2101       F  0.83335407  0.54020059  0.63668993    -0.19540
H2102       H  0.80537617  0.58675497  0.62541081     0.18220
H2103       H  0.94001597  0.66549328  0.69664903     0.18230
F2104       F  0.91813488  0.71522196  0.68377571    -0.19530
C2105       C  0.75534885  0.59706488  0.49584945    -0.20970
C2106       C  0.79266558  0.64460626  0.98717521    -0.09010
C2107       C  0.78134989  0.66582380  0.96675516     0.29850
C2108       C  0.73492606  0.64656234  0.96319200    -0.20970
C2109       C  0.69826554  0.60420018  0.97815607    -0.09020
C2110       C  0.70868755  0.57789183  0.99278593     0.29860
F2111       F  0.67447941  0.53503339  0.50570192    -0.19540
H2112       H  0.76220353  0.57729886  0.50911826     0.18220
H2113       H  0.72800241  0.66565924  0.94903673     0.18230
F2114       F  0.81480797  0.70575524  0.95079735    -0.19530
C2115       C  0.85251428  0.74627450  0.00769434    -0.20970
C2116       C  0.87252456  0.72686157  0.99786549    -0.09010
C2117       C  0.91977347  0.75944940  0.98800649     0.29850
C2118       C  0.94300516  0.80806524  0.98496781    -0.20970
C2119       C  0.92038039  0.82530522  0.99241490    -0.09020
C2120       C  0.87543778  0.79405951  0.00460662     0.29860
F2121       F  0.85303832  0.80968461  0.01300995    -0.19540
H2122       H  0.81759988  0.72362633  0.51706342     0.18220
H2123       H  0.97821844  0.83203971  0.97600948     0.17970
F2124       F  0.94466709  0.74570774  0.98251028    -0.19530
C2125       C  0.87467243  0.59331250  0.99503998    -0.20970
C2126       C  0.89690160  0.60721549  0.96694377    -0.09010
C2127       C  0.89681840  0.63870000  0.94863989     0.29850
C2128       C  0.87802036  0.65846599  0.95972621    -0.20970
C2129       C  0.86133721  0.64927068  0.98975214    -0.09020
C2130       C  0.85647229  0.61288789  0.50610352     0.29860
F2131       F  0.83288986  0.59432865  0.53260486    -0.19540
H2132       H  0.87130227  0.56678881  0.50891380     0.18220
H2133       H  0.87821527  0.68255252  0.94527294     0.18230
F2134       F  0.91614966  0.65159840  0.92066964    -0.19530
C2135       C  0.79856599  0.65055298  0.55283657    -0.20970
C2136       C  0.83943340  0.66820623  0.53740035    -0.09010
C2137       C  0.87949652  0.68541275  0.55517709     0.29850
C2138       C  0.87787867  0.68460254  0.58682382    -0.20970
C2139       C  0.83744444  0.66959611  0.60197409    -0.09020
C2140       C  0.79620202  0.64707122  0.58397011     0.29860
F2141       F  0.75229774  0.61946106  0.59531403    -0.19540
H2142       H  0.76740227  0.63975215  0.54138960     0.18220
H2143       H  0.90945940  0.69879337  0.59961966     0.18230
F2144       F  0.92055734  0.70374759  0.54192078    -0.19530
loop_ 
_geom_bond_atom_site_label_1 
_geom_bond_atom_site_label_2 
_geom_bond_distance 
_geom_bond_site_symmetry_2 
_ccdc_geom_bond_type 
C1          C260   1.552       .  S
C1          C498   1.563   1_554  S
C1          C508   1.561   1_554  S
C1          C521   1.552   1_554  S
C2          C200   1.557       .  S
C2          C213   1.566       .  S
C2          C220   1.567       .  S
C2          C263   1.563       .  S
C3          C163   1.572       .  S
C3          C170   1.577       .  S
C3          C180   1.566       .  S
C3          C190   1.575       .  S
C4          C130   1.568       .  S
C4          C143   1.566       .  S
C4          C153   1.568       .  S
C4          C193   1.559       .  S
O5          Zr17   2.415       .  S
O5            C7   1.283       .  A
O6          Zr43   2.455       .  S
O6          C543   1.293   1_545  A
C7          O542   1.293       .  A
C7          C183   1.489       .  S
O8         Zr288   2.393   1_554  S
O8           C10   1.280       .  A
O9         Zr848   2.512   1_554  S
O9         C1618   1.300       .  A
C10        O1617   1.300   1_545  A
C10          C78   1.501       .  S
O11         Zr20   2.425       .  S
O11          C13   1.287       .  A
O12         Zr43   2.444       .  S
O12          C13   1.289       .  A
C13         C250   1.485       .  S
O14         Zr17   2.428       .  S
O14          C16   1.287       .  A
O15       Zr1652   2.444       .  S
O15          C16   1.289       .  A
C16         C243   1.476       .  S
Zr17         O18   2.433       .  S
Zr17         O19   2.436       .  S
Zr17         O24   2.371       .  S
Zr17         O47   2.348       .  S
Zr17         O49   2.375       .  S
Zr17        O559   2.356       .  S
O18          H61   0.990       .  S
O19          H60   0.990       .  S
O19          H64   0.990       .  S
Zr20        O276   2.393       .  S
Zr20        O289   2.437       .  S
Zr20       O1362   2.435       .  S
Zr20         O23   2.346       .  S
Zr20        O560   2.370   1_545  S
Zr20       O1120   2.348       .  S
Zr20       O1122   2.376       .  S
O21        Zr288   2.437   1_554  S
O21          H65   0.990       .  S
O21         H598   0.990   1_545  S
O22       Zr1360   2.435   1_454  S
O22          H55   0.990       .  S
O23         Zr43   2.388       .  S
O23        Zr553   2.356   1_545  S
O24        Zr556   2.370       .  S
O24       Zr1652   2.395       .  S
O24          H51   0.966       .  S
O25        Zr573   2.446       .  S
O25          C27   1.290       .  A
O26        Zr580   2.434       .  S
O26          C27   1.289       .  A
C27         C173   1.474       .  S
O28         Zr40   2.434       .  S
O28          C30   1.287       .  A
O29       Zr1115   2.443   1_455  S
O29          C30   1.289       .  A
C30         C160   1.465       .  S
O31         Zr40   2.436       .  S
O31          C33   1.289       .  A
O32         Zr44   2.452   1_545  S
O32          C33   1.292       .  A
C33         C233   1.491       .  S
O34         Zr37   2.413   1_645  S
O34        C1108   1.285       .  A
O35         Zr43   2.495       .  S
O35          C36   1.296       .  A
C36        O1106   1.285       .  A
C36          C92   1.501       .  S
Zr37        O561   2.446       .  S
Zr37         O38   2.437   1_565  S
Zr37       O1647   2.434   1_455  S
Zr37         O45   2.349   1_565  S
Zr37         O46   2.376   1_565  S
Zr37       O1657   2.370   1_455  S
Zr37       O1655   2.357   1_455  S
O38          H58   0.990       .  S
O38          H63   0.990       .  S
O39       Zr1645   2.434       .  S
O39          H59   0.990       .  S
Zr40         O41   2.433       .  S
Zr40         O42   2.435       .  S
Zr40         O46   2.380       .  S
Zr40         O45   2.367       .  S
Zr40         O50   2.376       .  S
Zr40         O48   2.365       .  S
O41          H57   0.990       .  S
O42          H56   0.990       .  S
O42          H66   0.990       .  S
Zr43       O1101   2.443       .  S
Zr43       O1118   2.397       .  S
Zr43       O1120   2.399       .  S
Zr43        O585   2.406   1_545  S
Zr44        O813   2.512       .  S
Zr44       O1623   2.444   1_455  S
Zr44        O562   2.434       .  S
Zr44         O45   2.399   1_565  S
Zr44         O50   2.395   1_565  S
Zr44       O1632   2.395   1_455  S
Zr44       O1655   2.394   1_455  S
O45          H53   0.964       .  S
O46       Zr1115   2.397   1_455  S
O47       Zr1645   2.357       .  S
O47       Zr1652   2.394       .  S
O48       Zr1092   2.348   1_455  S
O48       Zr1115   2.399   1_455  S
O48          H52   0.965       .  S
O49       Zr1645   2.370       .  S
O49        Zr579   2.406       .  S
O49          H54   0.966       .  S
O50       Zr1092   2.376   1_455  S
H62         O557   0.990       .  S
O67         Zr79   2.448       .  S
O67          C69   1.290       .  A
O68        Zr105   2.428       .  S
O68          C69   1.289       .  A
C69         C223   1.475       .  S
O70         Zr82   2.412       .  S
O70          C72   1.283       .  A
O71       Zr1714   2.440       .  S
O71          C72   1.290       .  A
C72         C210   1.473       .  S
O73         Zr82   2.416       .  S
O73          C75   1.284       .  A
O74        Zr105   2.438       .  S
O74         C611   1.289   1_545  A
C75         O610   1.289       .  A
C75         C150   1.469       .  S
O76         Zr79   2.432       .  S
O76          C78   1.290       .  A
O77        Zr642   2.479       .  S
O77        C1686   1.292       .  A
C78        O1685   1.292   1_545  A
Zr79         O80   2.434   1_545  S
Zr79       O1153   2.436       .  S
Zr79         O85   2.357       .  S
Zr79        O622   2.368   1_545  S
Zr79       O1181   2.372       .  S
Zr79       O1183   2.363       .  S
O80         H659   0.990       .  S
O81       Zr1151   2.436       .  S
O81         H122   0.990   1_655  S
O81        H1198   0.990       .  S
Zr82         O83   2.437       .  S
Zr82         O84   2.437       .  S
Zr82         O86   2.376       .  S
Zr82        O110   2.369       .  S
Zr82        O112   2.357       .  S
Zr82        O621   2.353       .  S
O83         H124   0.990       .  S
O83         H127   0.990       .  S
O84         H117   0.990       .  S
O85        Zr105   2.389       .  S
O85        Zr618   2.353   1_545  S
O86        Zr615   2.368       .  S
O86       Zr1714   2.396       .  S
O86         H113   0.966       .  S
O87         Zr99   2.422       .  S
O87          C89   1.285       .  A
O88        Zr106   2.443   1_545  S
O88          C89   1.290       .  A
C89         C203   1.469       .  S
O90        Zr102   2.412       .  S
O90        C1164   1.285   1_455  A
O91        Zr105   2.497       .  S
O91          C92   1.297       .  A
C92        O1162   1.285       .  A
O93        Zr638   2.440       .  S
O93          C95   1.288       .  A
O94        Zr642   2.416       .  S
O94          C95   1.286       .  A
C95         C140   1.464       .  S
O96         Zr99   2.416       .  S
O96          C98   1.284       .  A
O97       Zr1177   2.448   1_455  S
O97          C98   1.291       .  A
C98         C133   1.472       .  S
Zr99        O100   2.435       .  S
Zr99        O101   2.434       .  S
Zr99        O107   2.359       .  S
Zr99        O108   2.376       .  S
Zr99        O111   2.362       .  S
Zr99        O109   2.374       .  S
O100        H120   0.990       .  S
O100        H125   0.990       .  S
O101        H121   0.990       .  S
Zr102       O629   2.440   1_545  S
Zr102       O103   2.434       .  S
Zr102      O1712   2.435   1_445  S
Zr102       O108   2.375       .  S
Zr102       O107   2.351       .  S
Zr102      O1720   2.358   1_445  S
Zr102      O1718   2.369   1_445  S
O103        H119   0.990       .  S
O104      Zr1710   2.435       .  S
O104        H118   0.990       .  S
O104       H1200   0.990       .  S
Zr105      O1169   2.448       .  S
Zr105      O1180   2.390       .  S
Zr105       O646   2.395   1_545  S
Zr105      O1183   2.398       .  S
Zr106      O1679   2.440   1_455  S
Zr106       O613   2.479       .  S
Zr106       O630   2.416       .  S
Zr106       O107   2.394   1_565  S
Zr106       O109   2.391   1_565  S
Zr106      O1694   2.396   1_455  S
Zr106      O1720   2.388   1_455  S
O107        H115   0.964       .  S
O108      Zr1177   2.390   1_455  S
O109      Zr1151   2.372   1_455  S
O110      Zr1710   2.369       .  S
O110       Zr641   2.395       .  S
O110        H114   0.966       .  S
O111      Zr1151   2.363   1_455  S
O111      Zr1177   2.398   1_455  S
O111        H116   0.965       .  S
O112      Zr1710   2.358       .  S
O112      Zr1714   2.388       .  S
H123        O616   0.990       .  S
H126       O1153   0.990       .  S
H128       O1176   0.990   1_455  S
C129        C130   1.416       .  A
C129        C134   1.393       .  A
C129        H136   1.084       .  S
C130        C131   1.432       .  A
C131        C132   1.398       .  A
C131        F138   1.350       .  S
C132        C133   1.393       .  A
C132        H137   1.084       .  S
C133        C134   1.403       .  A
C134        F135   1.358       .  S
C139        C140   1.393       .  A
C139        C144   1.395       .  A
C139        H146   1.084       .  S
C140        C141   1.396       .  A
C141        C142   1.394       .  A
C141        F148   1.358       .  S
C142        C143   1.421       .  A
C142        H147   1.083       .  S
C143        C144   1.429       .  A
C144        F145   1.351       .  S
C149        C150   1.394       .  A
C149        C154   1.388       .  A
C149        H156   1.084       .  S
C150        C151   1.401       .  A
C151        C152   1.402       .  A
C151        F694   1.357       .  S
C152        C153   1.418       .  A
C152        H157   1.076       .  S
C153        C154   1.427       .  A
C154        F155   1.357       .  S
F158        C687   1.357   1_545  S
C159        C160   1.388       .  A
C159        C164   1.393       .  A
C159        H166   1.084       .  S
C160        C161   1.401       .  A
C161        C162   1.402       .  A
C161        F168   1.358       .  S
C162        C163   1.419       .  A
C162        H167   1.082       .  S
C163        C164   1.430       .  A
C164        F165   1.348       .  S
C169        C170   1.422       .  A
C169        C174   1.399       .  A
C169        H176   1.076       .  S
C170        C171   1.425       .  A
C171        C172   1.398       .  A
C171        F178   1.359       .  S
C172        C173   1.396       .  A
C172        H177   1.084       .  S
C173        C174   1.398       .  A
C174        F711   1.356       .  S
F175        C710   1.356       .  S
C179        C180   1.411       .  A
C179        C184   1.391       .  A
C179        H186   1.079       .  S
C180        C181   1.427       .  A
C181        C182   1.404       .  A
C181        F188   1.358       .  S
C182        C183   1.403       .  A
C182        H723   1.083       .  S
C183        C184   1.412       .  A
C184        F185   1.358       .  S
H187        C718   1.083   1_545  S
C189        C190   1.417       .  A
C189        C194   1.395       .  A
C189        H196   1.065       .  S
C190        C191   1.428       .  A
C191        C192   1.381       .  A
C191        F198   1.356       .  S
C192        C193   1.407       .  A
C192        H197   1.075       .  S
C193        C194   1.411       .  A
C194        F195   1.358       .  S
C199        C200   1.415       .  A
C199        C204   1.402       .  A
C199        H206   1.078       .  S
C200        C201   1.426       .  A
C201        C202   1.389       .  A
C201        F208   1.357       .  S
C202        C203   1.395       .  A
C202        H207   1.084       .  S
C203        C204   1.405       .  A
C204        F205   1.357       .  S
C209        C210   1.402       .  A
C209        C214   1.393       .  A
C209        H216   1.084       .  S
C210        C211   1.396       .  A
C211        C212   1.395       .  A
C211        F218   1.358       .  S
C212        C213   1.423       .  A
C212        H217   1.071       .  S
C213        C214   1.420       .  A
C214        F215   1.359       .  S
C219        C220   1.420       .  A
C219        C224   1.399       .  A
C219        H226   1.083       .  S
C220        C221   1.427       .  A
C221        C222   1.396       .  A
C221        F228   1.351       .  S
C222        C223   1.395       .  A
C222        H227   1.084       .  S
C223        C224   1.401       .  A
C224        F225   1.358       .  S
C229        C498   1.416       .  A
C229        C502   1.402       .  A
C229        H236   1.080   1_556  S
C230        C269   1.563       .  S
C230        C231   1.413       .  A
C230        C497   1.416       .  A
C231        C232   1.395       .  A
C231        F238   1.357       .  S
C232        C233   1.408       .  A
C232        H237   1.083       .  S
C233        C234   1.408       .  A
C234        C497   1.402       .  A
C234        F503   1.357       .  S
F235        C502   1.357   1_554  S
C239        C240   1.419       .  A
C239        C244   1.386       .  A
C239        H514   1.082       .  S
C240        C269   1.561       .  S
C240        C241   1.421       .  A
C241        C242   1.411       .  A
C241        F248   1.354       .  S
C242        C243   1.405       .  A
C242        H247   1.083       .  S
C243        C244   1.396       .  A
C244        F245   1.358       .  S
H246        C507   1.082       .  S
C249        C250   1.399       .  A
C249        C522   1.385       .  A
C249        H524   1.084       .  S
C250        C251   1.407       .  A
C251        C252   1.410       .  A
C251        F258   1.357       .  S
C252        C253   1.415       .  A
C252        H257   1.083       .  S
C253        C269   1.552       .  S
C253        C522   1.422       .  A
C254        C517   1.385   1_554  A
C254        C521   1.422   1_554  A
C254        F255   1.357       .  S
H256        C517   1.084   1_554  S
C259        C260   1.403       .  A
C259        C264   1.376       .  A
C259        H266   1.076       .  S
C260        C261   1.417       .  A
C261        C262   1.398       .  A
C261        F268   1.357       .  S
C262        C263   1.411       .  A
C262        H267   1.083       .  S
C263        C264   1.422       .  A
C264        F265   1.355       .  S
C269        C528   1.552       .  S
C270        C468   1.557       .  S
C270        C481   1.566       .  S
C270        C488   1.567       .  S
C270        C531   1.563       .  S
C271        C431   1.572       .  S
C271        C438   1.577       .  S
C271        C448   1.566       .  S
C271        C458   1.575       .  S
C272        C398   1.568       .  S
C272        C411   1.566       .  S
C272        C421   1.568       .  S
C272        C461   1.559       .  S
O273       Zr285   2.415       .  S
O273        C275   1.283       .  A
O274       Zr311   2.455       .  S
O274        C811   1.293   1_545  A
C275        O810   1.293       .  A
C275        C451   1.489       .  S
O276        C278   1.280       .  A
O277       Zr580   2.512       .  S
O277       C1886   1.300       .  A
C278       O1885   1.300   1_545  A
C278        C346   1.501       .  S
O279       Zr288   2.425       .  S
O279        C281   1.287       .  A
O280       Zr311   2.444       .  S
O280        C281   1.289       .  A
C281        C518   1.485       .  S
O282       Zr285   2.428       .  S
O282        C284   1.287       .  A
O283      Zr1920   2.444       .  S
O283        C284   1.289       .  A
C284        C511   1.476       .  S
Zr285       O286   2.433       .  S
Zr285       O287   2.436       .  S
Zr285       O827   2.356       .  S
Zr285       O292   2.371       .  S
Zr285       O315   2.348       .  S
Zr285       O317   2.375       .  S
O286        H329   0.990       .  S
O287        H328   0.990       .  S
O287        H332   0.990       .  S
Zr288      O1094   2.435   1_556  S
Zr288       O828   2.370   1_545  S
Zr288       O291   2.346       .  S
Zr288      O1388   2.348       .  S
Zr288      O1390   2.376       .  S
O289        H866   0.990   1_545  S
O289        H333   0.990       .  S
O290      Zr1092   2.435   1_455  S
O290        H323   0.990       .  S
O291       Zr821   2.356   1_545  S
O291       Zr311   2.388       .  S
O292       Zr824   2.370       .  S
O292      Zr1920   2.395       .  S
O292        H319   0.966   1_556  S
O293       Zr841   2.446       .  S
O293        C295   1.290       .  A
O294       Zr848   2.434       .  S
O294        C295   1.289       .  A
C295        C441   1.474       .  S
O296       Zr308   2.434       .  S
O296        C298   1.287       .  A
O297      Zr1383   2.443   1_455  S
O297        C298   1.289       .  A
C298        C428   1.465       .  S
O299       Zr308   2.436       .  S
O299        C301   1.289       .  A
O300       Zr312   2.452   1_545  S
O300        C301   1.292       .  A
C301        C501   1.491       .  S
O302       Zr305   2.413   1_645  S
O302       C1376   1.285       .  A
O303       Zr311   2.495       .  S
O303        C304   1.296       .  A
C304       O1374   1.285       .  A
C304        C360   1.501       .  S
Zr305       O829   2.446       .  S
Zr305       O306   2.437   1_565  S
Zr305      O1915   2.434   1_455  S
Zr305       O313   2.349   1_565  S
Zr305       O314   2.376   1_565  S
Zr305      O1925   2.370   1_455  S
Zr305      O1923   2.357   1_455  S
O306        H326   0.990       .  S
O306        H331   0.990       .  S
O307      Zr1913   2.434       .  S
O307        H327   0.990       .  S
Zr308       O309   2.433       .  S
Zr308       O310   2.435       .  S
Zr308       O314   2.380       .  S
Zr308       O313   2.367       .  S
Zr308       O318   2.376       .  S
Zr308       O316   2.365       .  S
O309        H325   0.990       .  S
O310        H324   0.990       .  S
O310        H334   0.990       .  S
Zr311      O1369   2.443       .  S
Zr311      O1386   2.397       .  S
Zr311      O1388   2.399       .  S
Zr311       O853   2.406   1_545  S
Zr312       O545   2.512   1_556  S
Zr312      O1891   2.444   1_455  S
Zr312       O830   2.434       .  S
Zr312      O1900   2.395   1_455  S
Zr312       O313   2.399   1_565  S
Zr312      O1923   2.394   1_455  S
Zr312       O318   2.395   1_565  S
O313        H321   0.964       .  S
O314      Zr1383   2.397   1_455  S
O315      Zr1913   2.357       .  S
O315      Zr1920   2.394       .  S
O316      Zr1360   2.348   1_455  S
O316      Zr1383   2.399   1_455  S
O316        H320   0.965       .  S
O317      Zr1913   2.370       .  S
O317       Zr847   2.406       .  S
O317        H322   0.966       .  S
O318      Zr1360   2.376   1_455  S
H330        O825   0.990       .  S
O335       Zr347   2.448       .  S
O335        C337   1.290       .  A
O336       Zr373   2.428       .  S
O336        C337   1.289       .  A
C337        C491   1.475       .  S
O338       Zr350   2.412       .  S
O338        C340   1.283       .  A
O339      Zr1982   2.440       .  S
O339        C340   1.290       .  A
C340        C478   1.473       .  S
O341       Zr350   2.416       .  S
O341        C343   1.284       .  A
O342       Zr373   2.438       .  S
O342        C879   1.289   1_545  A
C343        O878   1.289       .  A
C343        C418   1.469       .  S
O344       Zr347   2.432       .  S
O344        C346   1.290       .  A
O345       Zr910   2.479       .  S
O345       C1954   1.292       .  A
C346       O1953   1.292   1_545  A
Zr347       O348   2.434   1_545  S
Zr347      O1421   2.436       .  S
Zr347       O353   2.357       .  S
Zr347       O890   2.368   1_545  S
Zr347      O1449   2.372       .  S
Zr347      O1451   2.363       .  S
O348        H927   0.990       .  S
O349      Zr1419   2.436       .  S
O349        H390   0.990   1_655  S
O349       H1466   0.990       .  S
Zr350       O351   2.437       .  S
Zr350       O352   2.437       .  S
Zr350       O354   2.376       .  S
Zr350       O889   2.353       .  S
Zr350       O378   2.369       .  S
Zr350       O380   2.357       .  S
O351        H392   0.990       .  S
O351        H395   0.990       .  S
O352        H385   0.990       .  S
O353       Zr886   2.353   1_545  S
O353       Zr373   2.389       .  S
O354       Zr883   2.368       .  S
O354      Zr1982   2.396       .  S
O354        H381   0.966       .  S
O355       Zr367   2.422       .  S
O355        C357   1.285       .  A
O356       Zr374   2.443   1_545  S
O356        C357   1.290       .  A
C357        C471   1.469       .  S
O358       Zr370   2.412       .  S
O358       C1432   1.285   1_455  A
O359       Zr373   2.497       .  S
O359        C360   1.297       .  A
C360       O1430   1.285       .  A
O361       Zr906   2.440       .  S
O361        C363   1.288       .  A
O362       Zr910   2.416       .  S
O362        C363   1.286       .  A
C363        C408   1.464       .  S
O364       Zr367   2.416       .  S
O364        C366   1.284       .  A
O365      Zr1445   2.448   1_455  S
O365        C366   1.291       .  A
C366        C401   1.472       .  S
Zr367       O368   2.435       .  S
Zr367       O369   2.434       .  S
Zr367       O375   2.359       .  S
Zr367       O376   2.376       .  S
Zr367       O379   2.362       .  S
Zr367       O377   2.374       .  S
O368        H388   0.990       .  S
O368        H393   0.990       .  S
O369        H389   0.990       .  S
Zr370       O897   2.440   1_545  S
Zr370       O371   2.434       .  S
Zr370      O1980   2.435   1_445  S
Zr370       O376   2.375       .  S
Zr370       O375   2.351       .  S
Zr370      O1988   2.358   1_445  S
Zr370      O1986   2.369   1_445  S
O371        H387   0.990       .  S
O372      Zr1978   2.435       .  S
O372        H386   0.990       .  S
O372       H1468   0.990       .  S
Zr373      O1437   2.448       .  S
Zr373      O1448   2.390       .  S
Zr373       O914   2.395   1_545  S
Zr373      O1451   2.398       .  S
Zr374      O1947   2.440   1_455  S
Zr374       O881   2.479       .  S
Zr374       O898   2.416       .  S
Zr374      O1962   2.396   1_455  S
Zr374       O375   2.394   1_565  S
Zr374       O377   2.391   1_565  S
Zr374      O1988   2.388   1_455  S
O375        H383   0.964       .  S
O376      Zr1445   2.390   1_455  S
O377      Zr1419   2.372   1_455  S
O378      Zr1978   2.369       .  S
O378       Zr909   2.395       .  S
O378        H382   0.966       .  S
O379      Zr1419   2.363   1_455  S
O379      Zr1445   2.398   1_455  S
O379        H384   0.965       .  S
O380      Zr1978   2.358       .  S
O380      Zr1982   2.388       .  S
H391        O884   0.990       .  S
H394       O1421   0.990       .  S
H396       O1444   0.990   1_455  S
C397        C398   1.416       .  A
C397        C402   1.393       .  A
C397        H404   1.084       .  S
C398        C399   1.432       .  A
C399        C400   1.398       .  A
C399        F406   1.350       .  S
C400        C401   1.393       .  A
C400        H405   1.084       .  S
C401        C402   1.403       .  A
C402        F403   1.358       .  S
C407        C408   1.393       .  A
C407        C412   1.395       .  A
C407        H414   1.084       .  S
C408        C409   1.396       .  A
C409        C410   1.394       .  A
C409        F416   1.358       .  S
C410        C411   1.421       .  A
C410        H415   1.083       .  S
C411        C412   1.429       .  A
C412        F413   1.351       .  S
C417        C418   1.394       .  A
C417        C422   1.388       .  A
C417        H424   1.084       .  S
C418        C419   1.401       .  A
C419        C420   1.402       .  A
C419        F962   1.357       .  S
C420        C421   1.418       .  A
C420        H425   1.076       .  S
C421        C422   1.427       .  A
C422        F423   1.357       .  S
F426        C955   1.357   1_545  S
C427        C428   1.388       .  A
C427        C432   1.393       .  A
C427        H434   1.084       .  S
C428        C429   1.401       .  A
C429        C430   1.402       .  A
C429        F436   1.358       .  S
C430        C431   1.419       .  A
C430        H435   1.082       .  S
C431        C432   1.430       .  A
C432        F433   1.348       .  S
C437        C438   1.422       .  A
C437        C442   1.399       .  A
C437        H444   1.076       .  S
C438        C439   1.425       .  A
C439        C440   1.398       .  A
C439        F446   1.359       .  S
C440        C441   1.396       .  A
C440        H445   1.084       .  S
C441        C442   1.398       .  A
C442        F979   1.356       .  S
F443        C978   1.356       .  S
C447        C448   1.411       .  A
C447        C452   1.391       .  A
C447        H454   1.079       .  S
C448        C449   1.427       .  A
C449        C450   1.404       .  A
C449        F456   1.358       .  S
C450        C451   1.403       .  A
C450        H991   1.083       .  S
C451        C452   1.412       .  A
C452        F453   1.358       .  S
H455        C986   1.083   1_545  S
C457        C458   1.417       .  A
C457        C462   1.395       .  A
C457        H464   1.065       .  S
C458        C459   1.428       .  A
C459        C460   1.381       .  A
C459        F466   1.356       .  S
C460        C461   1.407       .  A
C460        H465   1.075       .  S
C461        C462   1.411       .  A
C462        F463   1.358       .  S
C467        C468   1.415       .  A
C467        C472   1.402       .  A
C467        H474   1.078       .  S
C468        C469   1.426       .  A
C469        C470   1.389       .  A
C469        F476   1.357       .  S
C470        C471   1.395       .  A
C470        H475   1.084       .  S
C471        C472   1.405       .  A
C472        F473   1.357       .  S
C477        C478   1.402       .  A
C477        C482   1.393       .  A
C477        H484   1.084       .  S
C478        C479   1.396       .  A
C479        C480   1.395       .  A
C479        F486   1.358       .  S
C480        C481   1.423       .  A
C480        H485   1.071       .  S
C481        C482   1.420       .  A
C482        F483   1.359       .  S
C487        C488   1.420       .  A
C487        C492   1.399       .  A
C487        H494   1.083       .  S
C488        C489   1.427       .  A
C489        C490   1.396       .  A
C489        F496   1.351       .  S
C490        C491   1.395       .  A
C490        H495   1.084       .  S
C491        C492   1.401       .  A
C492        F493   1.358       .  S
C497        H504   1.080       .  S
C498        C499   1.413       .  A
C499        C500   1.395       .  A
C499        F506   1.357       .  S
C500        C501   1.408       .  A
C500        H505   1.083       .  S
C501        C502   1.408       .  A
C507        C508   1.419   1_554  A
C507        C512   1.386       .  A
C508        C509   1.421       .  A
C509        C510   1.411       .  A
C509        F516   1.354       .  S
C510        C511   1.405       .  A
C510        H515   1.083       .  S
C511        C512   1.396   1_556  A
C512        F513   1.358       .  S
C517        C518   1.399       .  A
C518        C519   1.407       .  A
C519        C520   1.410       .  A
C519        F526   1.357       .  S
C520        C521   1.415       .  A
C520        H525   1.083       .  S
C522        F523   1.357       .  S
C527        C528   1.403       .  A
C527        C532   1.376       .  A
C527        H534   1.076       .  S
C528        C529   1.417       .  A
C529        C530   1.398       .  A
C529        F536   1.357       .  S
C530        C531   1.411       .  A
C530        H535   1.083       .  S
C531        C532   1.422       .  A
C532        F533   1.355       .  S
C537       C1034   1.563   1_554  S
C537       C1044   1.561   1_554  S
C537       C1057   1.552   1_554  S
C537        C796   1.552       .  S
C538        C736   1.557       .  S
C538        C749   1.566       .  S
C538        C756   1.567       .  S
C538        C799   1.563       .  S
C539        C699   1.572       .  S
C539        C706   1.577       .  S
C539        C716   1.566       .  S
C539        C726   1.575       .  S
C540        C666   1.568       .  S
C540        C679   1.566       .  S
C540        C689   1.568       .  S
C540        C729   1.559       .  S
O541       Zr553   2.415       .  S
O541        C543   1.283       .  A
O542       Zr579   2.455       .  S
C543        C719   1.489       .  S
O544       Zr824   2.393   1_554  S
O544        C546   1.280       .  A
O545       C1082   1.300   1_565  A
C546       O1081   1.300       .  A
C546        C614   1.501       .  S
O547       Zr556   2.425       .  S
O547        C549   1.287       .  A
O548       Zr579   2.444       .  S
O548        C549   1.289       .  A
C549        C786   1.485       .  S
O550       Zr553   2.428       .  S
O550        C552   1.287       .  A
O551      Zr1116   2.444       .  S
O551        C552   1.289       .  A
C552        C779   1.476       .  S
Zr553       O554   2.433       .  S
Zr553       O555   2.436       .  S
Zr553       O560   2.371       .  S
Zr553       O583   2.348       .  S
Zr553       O585   2.375       .  S
O554        H597   0.990       .  S
O555        H596   0.990       .  S
O555        H600   0.990       .  S
Zr556       O812   2.393       .  S
Zr556       O825   2.437       .  S
Zr556      O1898   2.435       .  S
Zr556       O559   2.346       .  S
Zr556      O1656   2.348       .  S
Zr556      O1658   2.376       .  S
O557       Zr824   2.437   1_554  S
O557        H601   0.990       .  S
O558      Zr1896   2.435   1_454  S
O558        H591   0.990       .  S
O559       Zr579   2.388       .  S
O560      Zr1116   2.395       .  S
O560        H587   0.966       .  S
O561        C563   1.290       .  A
O562        C563   1.289       .  A
C563        C709   1.474       .  S
O564       Zr576   2.434       .  S
O564        C566   1.287       .  A
O565      Zr1651   2.443   1_455  S
O565        C566   1.289       .  A
C566        C696   1.465       .  S
O567       Zr576   2.436       .  S
O567        C569   1.289       .  A
O568       Zr580   2.452       .  S
O568        C569   1.292       .  A
C569        C769   1.491       .  S
O570       Zr573   2.413   1_655  S
O570       C1644   1.285       .  A
O571       Zr579   2.495       .  S
O571        C572   1.296       .  A
C572       O1642   1.285       .  A
C572        C628   1.501       .  S
Zr573       O574   2.437       .  S
Zr573      O1111   2.434   1_455  S
Zr573       O581   2.349       .  S
Zr573       O582   2.376       .  S
Zr573      O1121   2.370   1_455  S
Zr573      O1119   2.357   1_455  S
O574        H594   0.990       .  S
O574        H599   0.990       .  S
O575      Zr1109   2.434       .  S
O575        H595   0.990       .  S
Zr576       O577   2.433       .  S
Zr576       O578   2.435       .  S
Zr576       O582   2.380       .  S
Zr576       O581   2.367       .  S
Zr576       O586   2.376       .  S
Zr576       O584   2.365       .  S
O577        H593   0.990       .  S
O578        H592   0.990       .  S
O578        H602   0.990       .  S
Zr579      O1637   2.443       .  S
Zr579      O1654   2.397       .  S
Zr579      O1656   2.399       .  S
Zr580      O1087   2.444   1_455  S
Zr580      O1096   2.395   1_455  S
Zr580       O581   2.399       .  S
Zr580      O1119   2.394   1_455  S
Zr580       O586   2.395       .  S
O581        H589   0.964       .  S
O582      Zr1651   2.397   1_455  S
O583      Zr1109   2.357       .  S
O583      Zr1116   2.394       .  S
O584      Zr1628   2.348   1_455  S
O584      Zr1651   2.399   1_455  S
O584        H588   0.965       .  S
O585      Zr1109   2.370       .  S
O585        H590   0.966       .  S
O586      Zr1628   2.376   1_455  S
O603       Zr615   2.448       .  S
O603        C605   1.290       .  A
O604       Zr641   2.428       .  S
O604        C605   1.289       .  A
C605        C759   1.475       .  S
O606       Zr618   2.412       .  S
O606        C608   1.283       .  A
O607      Zr1178   2.440       .  S
O607        C608   1.290       .  A
C608        C746   1.473       .  S
O609       Zr618   2.416       .  S
O609        C611   1.284       .  A
O610       Zr641   2.438       .  S
C611        C686   1.469       .  S
O612       Zr615   2.432       .  S
O612        C614   1.290       .  A
O613       C1150   1.292   1_565  A
C614       O1149   1.292       .  A
Zr615       O616   2.434       .  S
Zr615      O1689   2.436       .  S
Zr615       O621   2.357       .  S
Zr615      O1717   2.372       .  S
Zr615      O1719   2.363       .  S
O617      Zr1687   2.436       .  S
O617        H658   0.990   1_655  S
O617       H1734   0.990       .  S
Zr618       O619   2.437       .  S
Zr618       O620   2.437       .  S
Zr618       O622   2.376       .  S
Zr618       O646   2.369       .  S
Zr618       O648   2.357       .  S
O619        H660   0.990       .  S
O619        H663   0.990       .  S
O620        H653   0.990       .  S
O621       Zr641   2.389       .  S
O622      Zr1178   2.396       .  S
O622        H649   0.966       .  S
O623       Zr635   2.422       .  S
O623        C625   1.285       .  A
O624       Zr642   2.443       .  S
O624        C625   1.290       .  A
C625        C739   1.469       .  S
O626       Zr638   2.412       .  S
O626       C1700   1.285   1_455  A
O627       Zr641   2.497       .  S
O627        C628   1.297       .  A
C628       O1698   1.285       .  A
O629        C631   1.288       .  A
O630        C631   1.286       .  A
C631        C676   1.464       .  S
O632       Zr635   2.416       .  S
O632        C634   1.284       .  A
O633      Zr1713   2.448   1_455  S
O633        C634   1.291       .  A
C634        C669   1.472       .  S
Zr635       O636   2.435       .  S
Zr635       O637   2.434       .  S
Zr635       O643   2.359       .  S
Zr635       O644   2.376       .  S
Zr635       O647   2.362       .  S
Zr635       O645   2.374       .  S
O636        H656   0.990       .  S
O636        H661   0.990       .  S
O637        H657   0.990       .  S
Zr638       O639   2.434       .  S
Zr638      O1176   2.435   1_455  S
Zr638       O644   2.375       .  S
Zr638       O643   2.351       .  S
Zr638      O1184   2.358   1_455  S
Zr638      O1182   2.369   1_455  S
O639        H655   0.990       .  S
O640      Zr1174   2.435   1_565  S
O640        H654   0.990       .  S
O640       H1736   0.990       .  S
Zr641      O1705   2.448       .  S
Zr641      O1716   2.390       .  S
Zr641      O1719   2.398       .  S
Zr642      O1143   2.440   1_455  S
Zr642      O1158   2.396   1_455  S
Zr642       O643   2.394       .  S
Zr642       O645   2.391       .  S
Zr642      O1184   2.388   1_455  S
O643        H651   0.964       .  S
O644      Zr1713   2.390   1_455  S
O645      Zr1687   2.372   1_455  S
O646      Zr1174   2.369   1_565  S
O646        H650   0.966       .  S
O647      Zr1687   2.363   1_455  S
O647      Zr1713   2.398   1_455  S
O647        H652   0.965       .  S
O648      Zr1174   2.358   1_565  S
O648      Zr1178   2.388       .  S
H662       O1689   0.990       .  S
H664       O1712   0.990   1_455  S
C665        C666   1.416       .  A
C665        C670   1.393       .  A
C665        H672   1.084       .  S
C666        C667   1.432       .  A
C667        C668   1.398       .  A
C667        F674   1.350       .  S
C668        C669   1.393       .  A
C668        H673   1.084       .  S
C669        C670   1.403       .  A
C670        F671   1.358       .  S
C675        C676   1.393       .  A
C675        C680   1.395       .  A
C675        H682   1.084       .  S
C676        C677   1.396       .  A
C677        C678   1.394       .  A
C677        F684   1.358   1_565  S
C678        C679   1.421       .  A
C678        H683   1.083       .  S
C679        C680   1.429       .  A
C680        F681   1.351       .  S
C685        C686   1.394       .  A
C685        C690   1.388       .  A
C685        H692   1.084       .  S
C686        C687   1.401       .  A
C687        C688   1.402       .  A
C688        C689   1.418       .  A
C688        H693   1.076       .  S
C689        C690   1.427       .  A
C690        F691   1.357       .  S
C695        C696   1.388       .  A
C695        C700   1.393       .  A
C695        H702   1.084       .  S
C696        C697   1.401       .  A
C697        C698   1.402       .  A
C697        F704   1.358       .  S
C698        C699   1.419       .  A
C698        H703   1.082       .  S
C699        C700   1.430       .  A
C700        F701   1.348       .  S
C705        C706   1.422       .  A
C705        C710   1.399       .  A
C705        H712   1.076       .  S
C706        C707   1.425       .  A
C707        C708   1.398       .  A
C707        F714   1.359       .  S
C708        C709   1.396       .  A
C708        H713   1.084       .  S
C709        C710   1.398       .  A
C715        C716   1.411       .  A
C715        C720   1.391       .  A
C715        H722   1.079       .  S
C716        C717   1.427       .  A
C717        C718   1.404       .  A
C717        F724   1.358       .  S
C718        C719   1.403       .  A
C719        C720   1.412       .  A
C720        F721   1.358       .  S
C725        C726   1.417       .  A
C725        C730   1.395       .  A
C725        H732   1.065       .  S
C726        C727   1.428       .  A
C727        C728   1.381       .  A
C727        F734   1.356       .  S
C728        C729   1.407       .  A
C728        H733   1.075       .  S
C729        C730   1.411       .  A
C730        F731   1.358       .  S
C735        C736   1.415       .  A
C735        C740   1.402       .  A
C735        H742   1.078       .  S
C736        C737   1.426       .  A
C737        C738   1.389       .  A
C737        F744   1.357       .  S
C738        C739   1.395       .  A
C738        H743   1.084       .  S
C739        C740   1.405       .  A
C740        F741   1.357       .  S
C745        C746   1.402       .  A
C745        C750   1.393       .  A
C745        H752   1.084       .  S
C746        C747   1.396       .  A
C747        C748   1.395       .  A
C747        F754   1.358       .  S
C748        C749   1.423       .  A
C748        H753   1.071       .  S
C749        C750   1.420       .  A
C750        F751   1.359       .  S
C755        C756   1.420       .  A
C755        C760   1.399       .  A
C755        H762   1.083       .  S
C756        C757   1.427       .  A
C757        C758   1.396       .  A
C757        F764   1.351       .  S
C758        C759   1.395       .  A
C758        H763   1.084       .  S
C759        C760   1.401       .  A
C760        F761   1.358       .  S
C765       C1034   1.416       .  A
C765       C1038   1.402       .  A
C765        H772   1.080   1_556  S
C766        C805   1.563       .  S
C766       C1033   1.416       .  A
C766        C767   1.413       .  A
C767        C768   1.395       .  A
C767        F774   1.357       .  S
C768        C769   1.408       .  A
C768        H773   1.083       .  S
C769        C770   1.408       .  A
C770       C1033   1.402       .  A
C770       F1039   1.357       .  S
F771       C1038   1.357   1_554  S
C775        C776   1.419       .  A
C775        C780   1.386       .  A
C775       H1050   1.082       .  S
C776        C805   1.561       .  S
C776        C777   1.421       .  A
C777        C778   1.411       .  A
C777        F784   1.354       .  S
C778        C779   1.405       .  A
C778        H783   1.083       .  S
C779        C780   1.396       .  A
C780        F781   1.358       .  S
H782       C1043   1.082       .  S
C785        C786   1.399       .  A
C785       C1058   1.385       .  A
C785       H1060   1.084       .  S
C786        C787   1.407       .  A
C787        C788   1.410       .  A
C787        F794   1.357       .  S
C788        C789   1.415       .  A
C788        H793   1.083       .  S
C789        C805   1.552       .  S
C789       C1058   1.422       .  A
C790       C1053   1.385   1_554  A
C790       C1057   1.422   1_554  A
C790        F791   1.357       .  S
H792       C1053   1.084   1_554  S
C795        C796   1.403       .  A
C795        C800   1.376       .  A
C795        H802   1.076       .  S
C796        C797   1.417       .  A
C797        C798   1.398       .  A
C797        F804   1.357       .  S
C798        C799   1.411       .  A
C798        H803   1.083       .  S
C799        C800   1.422       .  A
C800        F801   1.355       .  S
C805       C1064   1.552       .  S
C806       C1004   1.557       .  S
C806       C1017   1.566       .  S
C806       C1024   1.567       .  S
C806       C1067   1.563       .  S
C807        C967   1.572       .  S
C807        C974   1.577       .  S
C807        C984   1.566       .  S
C807        C994   1.575       .  S
C808        C934   1.568       .  S
C808        C947   1.566       .  S
C808        C957   1.568       .  S
C808        C997   1.559       .  S
O809       Zr821   2.415       .  S
O809        C811   1.283       .  A
O810       Zr847   2.455       .  S
C811        C987   1.489       .  S
O812        C814   1.280       .  A
O813       C1350   1.300   1_565  A
C814       O1349   1.300       .  A
C814        C882   1.501       .  S
O815       Zr824   2.425       .  S
O815        C817   1.287       .  A
O816       Zr847   2.444       .  S
O816        C817   1.289       .  A
C817       C1054   1.485       .  S
O818       Zr821   2.428       .  S
O818        C820   1.287       .  A
O819      Zr1384   2.444       .  S
O819        C820   1.289       .  A
C820       C1047   1.476       .  S
Zr821       O822   2.433       .  S
Zr821       O823   2.436       .  S
Zr821       O828   2.371       .  S
Zr821       O851   2.348       .  S
Zr821       O853   2.375       .  S
O822        H865   0.990       .  S
O823        H864   0.990       .  S
O823        H868   0.990       .  S
Zr824      O1630   2.435   1_556  S
Zr824       O827   2.346       .  S
Zr824      O1924   2.348       .  S
Zr824      O1926   2.376       .  S
O825        H869   0.990       .  S
O826      Zr1628   2.435   1_455  S
O826        H859   0.990       .  S
O827       Zr847   2.388       .  S
O828      Zr1384   2.395       .  S
O828        H855   0.966   1_556  S
O829        C831   1.290       .  A
O830        C831   1.289       .  A
C831        C977   1.474       .  S
O832       Zr844   2.434       .  S
O832        C834   1.287       .  A
O833      Zr1919   2.443   1_455  S
O833        C834   1.289       .  A
C834        C964   1.465       .  S
O835       Zr844   2.436       .  S
O835        C837   1.289       .  A
O836       Zr848   2.452       .  S
O836        C837   1.292       .  A
C837       C1037   1.491       .  S
O838       Zr841   2.413   1_655  S
O838       C1912   1.285       .  A
O839       Zr847   2.495       .  S
O839        C840   1.296       .  A
C840       O1910   1.285       .  A
C840        C896   1.501       .  S
Zr841       O842   2.437       .  S
Zr841      O1379   2.434   1_455  S
Zr841       O849   2.349       .  S
Zr841       O850   2.376       .  S
Zr841      O1389   2.370   1_455  S
Zr841      O1387   2.357   1_455  S
O842        H862   0.990       .  S
O842        H867   0.990       .  S
O843      Zr1377   2.434       .  S
O843        H863   0.990       .  S
Zr844       O845   2.433       .  S
Zr844       O846   2.435       .  S
Zr844       O850   2.380       .  S
Zr844       O849   2.367       .  S
Zr844       O854   2.376       .  S
Zr844       O852   2.365       .  S
O845        H861   0.990       .  S
O846        H860   0.990       .  S
O846        H870   0.990       .  S
Zr847      O1905   2.443       .  S
Zr847      O1922   2.397       .  S
Zr847      O1924   2.399       .  S
Zr848      O1355   2.444   1_455  S
Zr848      O1364   2.395   1_455  S
Zr848       O849   2.399       .  S
Zr848      O1387   2.394   1_455  S
Zr848       O854   2.395       .  S
O849        H857   0.964       .  S
O850      Zr1919   2.397   1_455  S
O851      Zr1377   2.357       .  S
O851      Zr1384   2.394       .  S
O852      Zr1896   2.348   1_455  S
O852      Zr1919   2.399   1_455  S
O852        H856   0.965       .  S
O853      Zr1377   2.370       .  S
O853        H858   0.966       .  S
O854      Zr1896   2.376   1_455  S
O871       Zr883   2.448       .  S
O871        C873   1.290       .  A
O872       Zr909   2.428       .  S
O872        C873   1.289       .  A
C873       C1027   1.475       .  S
O874       Zr886   2.412       .  S
O874        C876   1.283       .  A
O875      Zr1446   2.440       .  S
O875        C876   1.290       .  A
C876       C1014   1.473       .  S
O877       Zr886   2.416       .  S
O877        C879   1.284       .  A
O878       Zr909   2.438       .  S
C879        C954   1.469       .  S
O880       Zr883   2.432       .  S
O880        C882   1.290       .  A
O881       C1418   1.292   1_565  A
C882       O1417   1.292       .  A
Zr883       O884   2.434       .  S
Zr883      O1957   2.436       .  S
Zr883       O889   2.357       .  S
Zr883      O1985   2.372       .  S
Zr883      O1987   2.363       .  S
O885      Zr1955   2.436       .  S
O885        H926   0.990   1_655  S
O885       H2002   0.990       .  S
Zr886       O887   2.437       .  S
Zr886       O888   2.437       .  S
Zr886       O890   2.376       .  S
Zr886       O914   2.369       .  S
Zr886       O916   2.357       .  S
O887        H928   0.990       .  S
O887        H931   0.990       .  S
O888        H921   0.990       .  S
O889       Zr909   2.389       .  S
O890      Zr1446   2.396       .  S
O890        H917   0.966       .  S
O891       Zr903   2.422       .  S
O891        C893   1.285       .  A
O892       Zr910   2.443       .  S
O892        C893   1.290       .  A
C893       C1007   1.469       .  S
O894       Zr906   2.412       .  S
O894       C1968   1.285   1_455  A
O895       Zr909   2.497       .  S
O895        C896   1.297       .  A
C896       O1966   1.285       .  A
O897        C899   1.288       .  A
O898        C899   1.286       .  A
C899        C944   1.464       .  S
O900       Zr903   2.416       .  S
O900        C902   1.284       .  A
O901      Zr1981   2.448   1_455  S
O901        C902   1.291       .  A
C902        C937   1.472       .  S
Zr903       O904   2.435       .  S
Zr903       O905   2.434       .  S
Zr903       O911   2.359       .  S
Zr903       O912   2.376       .  S
Zr903       O915   2.362       .  S
Zr903       O913   2.374       .  S
O904        H924   0.990       .  S
O904        H929   0.990       .  S
O905        H925   0.990       .  S
Zr906       O907   2.434       .  S
Zr906      O1444   2.435   1_455  S
Zr906       O912   2.375       .  S
Zr906       O911   2.351       .  S
Zr906      O1452   2.358   1_455  S
Zr906      O1450   2.369   1_455  S
O907        H923   0.990       .  S
O908      Zr1442   2.435   1_565  S
O908        H922   0.990       .  S
O908       H2004   0.990       .  S
Zr909      O1973   2.448       .  S
Zr909      O1984   2.390       .  S
Zr909      O1987   2.398       .  S
Zr910      O1411   2.440   1_455  S
Zr910      O1426   2.396   1_455  S
Zr910       O911   2.394       .  S
Zr910       O913   2.391       .  S
Zr910      O1452   2.388   1_455  S
O911        H919   0.964       .  S
O912      Zr1981   2.390   1_455  S
O913      Zr1955   2.372   1_455  S
O914      Zr1442   2.369   1_565  S
O914        H918   0.966       .  S
O915      Zr1955   2.363   1_455  S
O915      Zr1981   2.398   1_455  S
O915        H920   0.965       .  S
O916      Zr1442   2.358   1_565  S
O916      Zr1446   2.388       .  S
H930       O1957   0.990       .  S
H932       O1980   0.990   1_455  S
C933        C934   1.416       .  A
C933        C938   1.393       .  A
C933        H940   1.084       .  S
C934        C935   1.432       .  A
C935        C936   1.398       .  A
C935        F942   1.350       .  S
C936        C937   1.393       .  A
C936        H941   1.084       .  S
C937        C938   1.403       .  A
C938        F939   1.358       .  S
C943        C944   1.393       .  A
C943        C948   1.395       .  A
C943        H950   1.084       .  S
C944        C945   1.396       .  A
C945        C946   1.394       .  A
C945        F952   1.358   1_565  S
C946        C947   1.421       .  A
C946        H951   1.083       .  S
C947        C948   1.429       .  A
C948        F949   1.351       .  S
C953        C954   1.394       .  A
C953        C958   1.388       .  A
C953        H960   1.084       .  S
C954        C955   1.401       .  A
C955        C956   1.402       .  A
C956        C957   1.418       .  A
C956        H961   1.076       .  S
C957        C958   1.427       .  A
C958        F959   1.357       .  S
C963        C964   1.388       .  A
C963        C968   1.393       .  A
C963        H970   1.084       .  S
C964        C965   1.401       .  A
C965        C966   1.402       .  A
C965        F972   1.358       .  S
C966        C967   1.419       .  A
C966        H971   1.082       .  S
C967        C968   1.430       .  A
C968        F969   1.348       .  S
C973        C974   1.422       .  A
C973        C978   1.399       .  A
C973        H980   1.076       .  S
C974        C975   1.425       .  A
C975        C976   1.398       .  A
C975        F982   1.359       .  S
C976        C977   1.396       .  A
C976        H981   1.084       .  S
C977        C978   1.398       .  A
C983        C984   1.411       .  A
C983        C988   1.391       .  A
C983        H990   1.079       .  S
C984        C985   1.427       .  A
C985        C986   1.404       .  A
C985        F992   1.358       .  S
C986        C987   1.403       .  A
C987        C988   1.412       .  A
C988        F989   1.358       .  S
C993        C994   1.417       .  A
C993        C998   1.395       .  A
C993       H1000   1.065       .  S
C994        C995   1.428       .  A
C995        C996   1.381       .  A
C995       F1002   1.356       .  S
C996        C997   1.407       .  A
C996       H1001   1.075       .  S
C997        C998   1.411       .  A
C998        F999   1.358       .  S
C1003      C1004   1.415       .  A
C1003      C1008   1.402       .  A
C1003      H1010   1.078       .  S
C1004      C1005   1.426       .  A
C1005      C1006   1.389       .  A
C1005      F1012   1.357       .  S
C1006      C1007   1.395       .  A
C1006      H1011   1.084       .  S
C1007      C1008   1.405       .  A
C1008      F1009   1.357       .  S
C1013      C1014   1.402       .  A
C1013      C1018   1.393       .  A
C1013      H1020   1.084       .  S
C1014      C1015   1.396       .  A
C1015      C1016   1.395       .  A
C1015      F1022   1.358       .  S
C1016      C1017   1.423       .  A
C1016      H1021   1.071       .  S
C1017      C1018   1.420       .  A
C1018      F1019   1.359       .  S
C1023      C1024   1.420       .  A
C1023      C1028   1.399       .  A
C1023      H1030   1.083       .  S
C1024      C1025   1.427       .  A
C1025      C1026   1.396       .  A
C1025      F1032   1.351       .  S
C1026      C1027   1.395       .  A
C1026      H1031   1.084       .  S
C1027      C1028   1.401       .  A
C1028      F1029   1.358       .  S
C1033      H1040   1.080       .  S
C1034      C1035   1.413       .  A
C1035      C1036   1.395       .  A
C1035      F1042   1.357       .  S
C1036      C1037   1.408       .  A
C1036      H1041   1.083       .  S
C1037      C1038   1.408       .  A
C1043      C1044   1.419   1_554  A
C1043      C1048   1.386       .  A
C1044      C1045   1.421       .  A
C1045      C1046   1.411       .  A
C1045      F1052   1.354       .  S
C1046      C1047   1.405       .  A
C1046      H1051   1.083       .  S
C1047      C1048   1.396   1_556  A
C1048      F1049   1.358       .  S
C1053      C1054   1.399       .  A
C1054      C1055   1.407       .  A
C1055      C1056   1.410       .  A
C1055      F1062   1.357       .  S
C1056      C1057   1.415       .  A
C1056      H1061   1.083       .  S
C1058      F1059   1.357       .  S
C1063      C1064   1.403       .  A
C1063      C1068   1.376       .  A
C1063      H1070   1.076       .  S
C1064      C1065   1.417       .  A
C1065      C1066   1.398       .  A
C1065      F1072   1.357       .  S
C1066      C1067   1.411       .  A
C1066      H1071   1.083       .  S
C1067      C1068   1.422       .  A
C1068      F1069   1.355       .  S
C1073      C1570   1.563   1_554  S
C1073      C1580   1.561   1_554  S
C1073      C1593   1.552   1_554  S
C1073      C1332   1.552       .  S
C1074      C1272   1.557       .  S
C1074      C1285   1.566       .  S
C1074      C1292   1.567       .  S
C1074      C1335   1.563       .  S
C1075      C1235   1.572       .  S
C1075      C1242   1.577       .  S
C1075      C1252   1.566       .  S
C1075      C1262   1.575       .  S
C1076      C1202   1.568       .  S
C1076      C1215   1.566       .  S
C1076      C1225   1.568       .  S
C1076      C1265   1.559       .  S
O1077     Zr1089   2.415       .  S
O1077      C1079   1.283       .  A
O1078     Zr1115   2.455       .  S
O1078      C1615   1.293   1_545  A
C1079      O1614   1.293       .  A
C1079      C1255   1.489       .  S
O1080     Zr1360   2.393   1_554  S
O1080      C1082   1.280   1_655  A
O1081     Zr1920   2.512   1_554  S
C1082      C1150   1.501       .  S
O1083     Zr1092   2.425       .  S
O1083      C1085   1.287       .  A
O1084     Zr1115   2.444       .  S
O1084      C1085   1.289       .  A
C1085      C1322   1.485       .  S
O1086     Zr1089   2.428       .  S
O1086      C1088   1.287       .  A
O1087      C1088   1.289       .  A
C1088      C1315   1.476       .  S
Zr1089     O1090   2.433       .  S
Zr1089     O1091   2.436       .  S
Zr1089     O1631   2.356       .  S
Zr1089     O1096   2.371       .  S
Zr1089     O1119   2.348       .  S
Zr1089     O1121   2.375       .  S
O1090      H1133   0.990       .  S
O1091      H1132   0.990       .  S
O1091      H1136   0.990       .  S
Zr1092     O1348   2.393       .  S
Zr1092     O1361   2.437       .  S
Zr1092     O1632   2.370   1_545  S
Zr1092     O1095   2.346       .  S
O1093     Zr1360   2.437   1_554  S
O1093      H1670   0.990   1_545  S
O1093      H1137   0.990       .  S
O1094      H1127   0.990       .  S
O1095     Zr1625   2.356   1_545  S
O1095     Zr1115   2.388       .  S
O1096     Zr1628   2.370       .  S
O1096      H1123   0.966       .  S
O1097     Zr1645   2.446       .  S
O1097      C1099   1.290       .  A
O1098     Zr1652   2.434       .  S
O1098      C1099   1.289       .  A
C1099      C1245   1.474       .  S
O1100     Zr1112   2.434       .  S
O1100      C1102   1.287       .  A
O1101      C1102   1.289       .  A
C1102      C1232   1.465       .  S
O1103     Zr1112   2.436       .  S
O1103      C1105   1.289       .  A
O1104     Zr1116   2.452   1_545  S
O1104      C1105   1.292       .  A
C1105      C1305   1.491       .  S
O1106     Zr1109   2.413   1_545  S
O1107     Zr1115   2.495       .  S
O1107      C1108   1.296       .  A
C1108      C1164   1.501       .  S
Zr1109     O1633   2.446       .  S
Zr1109     O1110   2.437   1_565  S
Zr1109     O1117   2.349   1_565  S
Zr1109     O1118   2.376   1_565  S
O1110      H1130   0.990       .  S
O1110      H1135   0.990       .  S
O1111      H1131   0.990       .  S
Zr1112     O1113   2.433       .  S
Zr1112     O1114   2.435       .  S
Zr1112     O1118   2.380       .  S
Zr1112     O1117   2.367       .  S
Zr1112     O1122   2.376       .  S
Zr1112     O1120   2.365       .  S
O1113      H1129   0.990       .  S
O1114      H1128   0.990       .  S
O1114      H1138   0.990       .  S
Zr1115     O1657   2.406   1_545  S
Zr1116     O1885   2.512       .  S
Zr1116     O1634   2.434       .  S
Zr1116     O1117   2.399   1_565  S
Zr1116     O1122   2.395   1_565  S
O1117      H1125   0.964       .  S
O1120      H1124   0.965       .  S
O1121     Zr1651   2.406       .  S
O1121      H1126   0.966       .  S
H1134      O1629   0.990       .  S
O1139     Zr1151   2.448       .  S
O1139      C1141   1.290       .  A
O1140     Zr1177   2.428       .  S
O1140      C1141   1.289       .  A
C1141      C1295   1.475       .  S
O1142     Zr1154   2.412       .  S
O1142      C1144   1.283       .  A
O1143      C1144   1.290       .  A
C1144      C1282   1.473       .  S
O1145     Zr1154   2.416       .  S
O1145      C1147   1.284       .  A
O1146     Zr1177   2.438       .  S
O1146      C1683   1.289   1_545  A
C1147      O1682   1.289       .  A
C1147      C1222   1.469       .  S
O1148     Zr1151   2.432       .  S
O1148      C1150   1.290   1_655  A
O1149     Zr1714   2.479       .  S
Zr1151     O1152   2.434   1_545  S
Zr1151     O1157   2.357       .  S
Zr1151     O1694   2.368   1_545  S
O1152      H1731   0.990       .  S
O1153      H1194   0.990       .  S
Zr1154     O1155   2.437       .  S
Zr1154     O1156   2.437       .  S
Zr1154     O1158   2.376       .  S
Zr1154     O1693   2.353       .  S
Zr1154     O1182   2.369       .  S
Zr1154     O1184   2.357       .  S
O1155      H1196   0.990       .  S
O1155      H1199   0.990       .  S
O1156      H1189   0.990       .  S
O1157     Zr1690   2.353   1_545  S
O1157     Zr1177   2.389       .  S
O1158     Zr1687   2.368       .  S
O1158      H1185   0.966       .  S
O1159     Zr1171   2.422       .  S
O1159      C1161   1.285       .  A
O1160     Zr1178   2.443   1_545  S
O1160      C1161   1.290       .  A
C1161      C1275   1.469       .  S
O1162     Zr1174   2.412       .  S
O1163     Zr1177   2.497       .  S
O1163      C1164   1.297       .  A
O1165     Zr1710   2.440       .  S
O1165      C1167   1.288       .  A
O1166     Zr1714   2.416       .  S
O1166      C1167   1.286       .  A
C1167      C1212   1.464       .  S
O1168     Zr1171   2.416       .  S
O1168      C1170   1.284       .  A
O1169      C1170   1.291       .  A
C1170      C1205   1.472       .  S
Zr1171     O1172   2.435       .  S
Zr1171     O1173   2.434       .  S
Zr1171     O1179   2.359       .  S
Zr1171     O1180   2.376       .  S
Zr1171     O1183   2.362       .  S
Zr1171     O1181   2.374       .  S
O1172      H1192   0.990       .  S
O1172      H1197   0.990       .  S
O1173      H1193   0.990       .  S
Zr1174     O1701   2.440   1_545  S
Zr1174     O1175   2.434       .  S
Zr1174     O1180   2.375       .  S
Zr1174     O1179   2.351       .  S
O1175      H1191   0.990       .  S
O1176      H1190   0.990       .  S
Zr1177     O1718   2.395   1_545  S
Zr1178     O1685   2.479       .  S
Zr1178     O1702   2.416       .  S
Zr1178     O1179   2.394   1_565  S
Zr1178     O1181   2.391   1_565  S
O1179      H1187   0.964       .  S
O1182     Zr1713   2.395       .  S
O1182      H1186   0.966       .  S
O1183      H1188   0.965       .  S
H1195      O1688   0.990       .  S
C1201      C1202   1.416       .  A
C1201      C1206   1.393       .  A
C1201      H1208   1.084       .  S
C1202      C1203   1.432       .  A
C1203      C1204   1.398       .  A
C1203      F1210   1.350       .  S
C1204      C1205   1.393       .  A
C1204      H1209   1.084       .  S
C1205      C1206   1.403       .  A
C1206      F1207   1.358       .  S
C1211      C1212   1.393       .  A
C1211      C1216   1.395       .  A
C1211      H1218   1.084       .  S
C1212      C1213   1.396       .  A
C1213      C1214   1.394       .  A
C1213      F1220   1.358       .  S
C1214      C1215   1.421       .  A
C1214      H1219   1.083       .  S
C1215      C1216   1.429       .  A
C1216      F1217   1.351       .  S
C1221      C1222   1.394       .  A
C1221      C1226   1.388       .  A
C1221      H1228   1.084       .  S
C1222      C1223   1.401       .  A
C1223      C1224   1.402       .  A
C1223      F1766   1.357       .  S
C1224      C1225   1.418       .  A
C1224      H1229   1.076       .  S
C1225      C1226   1.427       .  A
C1226      F1227   1.357       .  S
F1230      C1759   1.357   1_545  S
C1231      C1232   1.388       .  A
C1231      C1236   1.393       .  A
C1231      H1238   1.084       .  S
C1232      C1233   1.401       .  A
C1233      C1234   1.402       .  A
C1233      F1240   1.358       .  S
C1234      C1235   1.419       .  A
C1234      H1239   1.082       .  S
C1235      C1236   1.430       .  A
C1236      F1237   1.348       .  S
C1241      C1242   1.422       .  A
C1241      C1246   1.399       .  A
C1241      H1248   1.076       .  S
C1242      C1243   1.425       .  A
C1243      C1244   1.398       .  A
C1243      F1250   1.359       .  S
C1244      C1245   1.396       .  A
C1244      H1249   1.084       .  S
C1245      C1246   1.398       .  A
C1246      F1783   1.356       .  S
F1247      C1782   1.356       .  S
C1251      C1252   1.411       .  A
C1251      C1256   1.391       .  A
C1251      H1258   1.079       .  S
C1252      C1253   1.427       .  A
C1253      C1254   1.404       .  A
C1253      F1260   1.358       .  S
C1254      C1255   1.403       .  A
C1254      H1795   1.083       .  S
C1255      C1256   1.412       .  A
C1256      F1257   1.358       .  S
H1259      C1790   1.083   1_545  S
C1261      C1262   1.417       .  A
C1261      C1266   1.395       .  A
C1261      H1268   1.065       .  S
C1262      C1263   1.428       .  A
C1263      C1264   1.381       .  A
C1263      F1270   1.356       .  S
C1264      C1265   1.407       .  A
C1264      H1269   1.075       .  S
C1265      C1266   1.411       .  A
C1266      F1267   1.358       .  S
C1271      C1272   1.415       .  A
C1271      C1276   1.402       .  A
C1271      H1278   1.078       .  S
C1272      C1273   1.426       .  A
C1273      C1274   1.389       .  A
C1273      F1280   1.357       .  S
C1274      C1275   1.395       .  A
C1274      H1279   1.084       .  S
C1275      C1276   1.405       .  A
C1276      F1277   1.357       .  S
C1281      C1282   1.402       .  A
C1281      C1286   1.393       .  A
C1281      H1288   1.084       .  S
C1282      C1283   1.396       .  A
C1283      C1284   1.395       .  A
C1283      F1290   1.358       .  S
C1284      C1285   1.423       .  A
C1284      H1289   1.071       .  S
C1285      C1286   1.420       .  A
C1286      F1287   1.359       .  S
C1291      C1292   1.420       .  A
C1291      C1296   1.399       .  A
C1291      H1298   1.083       .  S
C1292      C1293   1.427       .  A
C1293      C1294   1.396       .  A
C1293      F1300   1.351       .  S
C1294      C1295   1.395       .  A
C1294      H1299   1.084       .  S
C1295      C1296   1.401       .  A
C1296      F1297   1.358       .  S
C1301      C1570   1.416       .  A
C1301      C1574   1.402       .  A
C1301      H1308   1.080   1_556  S
C1302      C1341   1.563       .  S
C1302      C1569   1.416       .  A
C1302      C1303   1.413       .  A
C1303      C1304   1.395       .  A
C1303      F1310   1.357       .  S
C1304      C1305   1.408       .  A
C1304      H1309   1.083       .  S
C1305      C1306   1.408       .  A
C1306      C1569   1.402       .  A
C1306      F1575   1.357       .  S
F1307      C1574   1.357   1_554  S
C1311      C1312   1.419       .  A
C1311      C1316   1.386       .  A
C1311      H1586   1.082       .  S
C1312      C1341   1.561       .  S
C1312      C1313   1.421       .  A
C1313      C1314   1.411       .  A
C1313      F1320   1.354       .  S
C1314      C1315   1.405       .  A
C1314      H1319   1.083       .  S
C1315      C1316   1.396       .  A
C1316      F1317   1.358       .  S
H1318      C1579   1.082       .  S
C1321      C1322   1.399       .  A
C1321      C1594   1.385       .  A
C1321      H1596   1.084       .  S
C1322      C1323   1.407       .  A
C1323      C1324   1.410       .  A
C1323      F1330   1.357       .  S
C1324      C1325   1.415       .  A
C1324      H1329   1.083       .  S
C1325      C1341   1.552       .  S
C1325      C1594   1.422       .  A
C1326      C1589   1.385   1_554  A
C1326      C1593   1.422   1_554  A
C1326      F1327   1.357       .  S
H1328      C1589   1.084   1_554  S
C1331      C1332   1.403       .  A
C1331      C1336   1.376       .  A
C1331      H1338   1.076       .  S
C1332      C1333   1.417       .  A
C1333      C1334   1.398       .  A
C1333      F1340   1.357       .  S
C1334      C1335   1.411       .  A
C1334      H1339   1.083       .  S
C1335      C1336   1.422       .  A
C1336      F1337   1.355       .  S
C1341      C1600   1.552       .  S
C1342      C1540   1.557       .  S
C1342      C1553   1.566       .  S
C1342      C1560   1.567       .  S
C1342      C1603   1.563       .  S
C1343      C1503   1.572       .  S
C1343      C1510   1.577       .  S
C1343      C1520   1.566       .  S
C1343      C1530   1.575       .  S
C1344      C1470   1.568       .  S
C1344      C1483   1.566       .  S
C1344      C1493   1.568       .  S
C1344      C1533   1.559       .  S
O1345     Zr1357   2.415       .  S
O1345      C1347   1.283       .  A
O1346     Zr1383   2.455       .  S
O1346      C1883   1.293   1_545  A
C1347      O1882   1.293       .  A
C1347      C1523   1.489       .  S
O1348      C1350   1.280   1_655  A
O1349     Zr1652   2.512       .  S
C1350      C1418   1.501       .  S
O1351     Zr1360   2.425       .  S
O1351      C1353   1.287       .  A
O1352     Zr1383   2.444       .  S
O1352      C1353   1.289       .  A
C1353      C1590   1.485       .  S
O1354     Zr1357   2.428       .  S
O1354      C1356   1.287       .  A
O1355      C1356   1.289       .  A
C1356      C1583   1.476       .  S
Zr1357     O1358   2.433       .  S
Zr1357     O1359   2.436       .  S
Zr1357     O1899   2.356       .  S
Zr1357     O1364   2.371       .  S
Zr1357     O1387   2.348       .  S
Zr1357     O1389   2.375       .  S
O1358      H1401   0.990       .  S
O1359      H1400   0.990       .  S
O1359      H1404   0.990       .  S
Zr1360     O1900   2.370   1_545  S
Zr1360     O1363   2.346       .  S
O1361      H1938   0.990   1_545  S
O1361      H1405   0.990       .  S
O1362      H1395   0.990       .  S
O1363     Zr1893   2.356   1_545  S
O1363     Zr1383   2.388       .  S
O1364     Zr1896   2.370       .  S
O1364      H1391   0.966   1_556  S
O1365     Zr1913   2.446       .  S
O1365      C1367   1.290       .  A
O1366     Zr1920   2.434       .  S
O1366      C1367   1.289       .  A
C1367      C1513   1.474       .  S
O1368     Zr1380   2.434       .  S
O1368      C1370   1.287       .  A
O1369      C1370   1.289       .  A
C1370      C1500   1.465       .  S
O1371     Zr1380   2.436       .  S
O1371      C1373   1.289       .  A
O1372     Zr1384   2.452   1_545  S
O1372      C1373   1.292       .  A
C1373      C1573   1.491       .  S
O1374     Zr1377   2.413   1_545  S
O1375     Zr1383   2.495       .  S
O1375      C1376   1.296       .  A
C1376      C1432   1.501       .  S
Zr1377     O1901   2.446       .  S
Zr1377     O1378   2.437   1_565  S
Zr1377     O1385   2.349   1_565  S
Zr1377     O1386   2.376   1_565  S
O1378      H1398   0.990       .  S
O1378      H1403   0.990       .  S
O1379      H1399   0.990       .  S
Zr1380     O1381   2.433       .  S
Zr1380     O1382   2.435       .  S
Zr1380     O1386   2.380       .  S
Zr1380     O1385   2.367       .  S
Zr1380     O1390   2.376       .  S
Zr1380     O1388   2.365       .  S
O1381      H1397   0.990       .  S
O1382      H1396   0.990       .  S
O1382      H1406   0.990       .  S
Zr1383     O1925   2.406   1_545  S
Zr1384     O1617   2.512   1_556  S
Zr1384     O1902   2.434       .  S
Zr1384     O1385   2.399   1_565  S
Zr1384     O1390   2.395   1_565  S
O1385      H1393   0.964       .  S
O1388      H1392   0.965       .  S
O1389     Zr1919   2.406       .  S
O1389      H1394   0.966       .  S
H1402      O1897   0.990       .  S
O1407     Zr1419   2.448       .  S
O1407      C1409   1.290       .  A
O1408     Zr1445   2.428       .  S
O1408      C1409   1.289       .  A
C1409      C1563   1.475       .  S
O1410     Zr1422   2.412       .  S
O1410      C1412   1.283       .  A
O1411      C1412   1.290       .  A
C1412      C1550   1.473       .  S
O1413     Zr1422   2.416       .  S
O1413      C1415   1.284       .  A
O1414     Zr1445   2.438       .  S
O1414      C1951   1.289   1_545  A
C1415      O1950   1.289       .  A
C1415      C1490   1.469       .  S
O1416     Zr1419   2.432       .  S
O1416      C1418   1.290   1_655  A
O1417     Zr1982   2.479       .  S
Zr1419     O1420   2.434   1_545  S
Zr1419     O1425   2.357       .  S
Zr1419     O1962   2.368   1_545  S
O1420      H1999   0.990       .  S
O1421      H1462   0.990       .  S
Zr1422     O1423   2.437       .  S
Zr1422     O1424   2.437       .  S
Zr1422     O1426   2.376       .  S
Zr1422     O1961   2.353       .  S
Zr1422     O1450   2.369       .  S
Zr1422     O1452   2.357       .  S
O1423      H1464   0.990       .  S
O1423      H1467   0.990       .  S
O1424      H1457   0.990       .  S
O1425     Zr1958   2.353   1_545  S
O1425     Zr1445   2.389       .  S
O1426     Zr1955   2.368       .  S
O1426      H1453   0.966       .  S
O1427     Zr1439   2.422       .  S
O1427      C1429   1.285       .  A
O1428     Zr1446   2.443   1_545  S
O1428      C1429   1.290       .  A
C1429      C1543   1.469       .  S
O1430     Zr1442   2.412       .  S
O1431     Zr1445   2.497       .  S
O1431      C1432   1.297       .  A
O1433     Zr1978   2.440       .  S
O1433      C1435   1.288       .  A
O1434     Zr1982   2.416       .  S
O1434      C1435   1.286       .  A
C1435      C1480   1.464       .  S
O1436     Zr1439   2.416       .  S
O1436      C1438   1.284       .  A
O1437      C1438   1.291       .  A
C1438      C1473   1.472       .  S
Zr1439     O1440   2.435       .  S
Zr1439     O1441   2.434       .  S
Zr1439     O1447   2.359       .  S
Zr1439     O1448   2.376       .  S
Zr1439     O1451   2.362       .  S
Zr1439     O1449   2.374       .  S
O1440      H1460   0.990       .  S
O1440      H1465   0.990       .  S
O1441      H1461   0.990       .  S
Zr1442     O1969   2.440   1_545  S
Zr1442     O1443   2.434       .  S
Zr1442     O1448   2.375       .  S
Zr1442     O1447   2.351       .  S
O1443      H1459   0.990       .  S
O1444      H1458   0.990       .  S
Zr1445     O1986   2.395   1_545  S
Zr1446     O1953   2.479       .  S
Zr1446     O1970   2.416       .  S
Zr1446     O1447   2.394   1_565  S
Zr1446     O1449   2.391   1_565  S
O1447      H1455   0.964       .  S
O1450     Zr1981   2.395       .  S
O1450      H1454   0.966       .  S
O1451      H1456   0.965       .  S
H1463      O1956   0.990       .  S
C1469      C1470   1.416       .  A
C1469      C1474   1.393       .  A
C1469      H1476   1.084       .  S
C1470      C1471   1.432       .  A
C1471      C1472   1.398       .  A
C1471      F1478   1.350       .  S
C1472      C1473   1.393       .  A
C1472      H1477   1.084       .  S
C1473      C1474   1.403       .  A
C1474      F1475   1.358       .  S
C1479      C1480   1.393       .  A
C1479      C1484   1.395       .  A
C1479      H1486   1.084       .  S
C1480      C1481   1.396       .  A
C1481      C1482   1.394       .  A
C1481      F1488   1.358       .  S
C1482      C1483   1.421       .  A
C1482      H1487   1.083       .  S
C1483      C1484   1.429       .  A
C1484      F1485   1.351       .  S
C1489      C1490   1.394       .  A
C1489      C1494   1.388       .  A
C1489      H1496   1.084       .  S
C1490      C1491   1.401       .  A
C1491      C1492   1.402       .  A
C1491      F2034   1.357       .  S
C1492      C1493   1.418       .  A
C1492      H1497   1.076       .  S
C1493      C1494   1.427       .  A
C1494      F1495   1.357       .  S
F1498      C2027   1.357   1_545  S
C1499      C1500   1.388       .  A
C1499      C1504   1.393       .  A
C1499      H1506   1.084       .  S
C1500      C1501   1.401       .  A
C1501      C1502   1.402       .  A
C1501      F1508   1.358       .  S
C1502      C1503   1.419       .  A
C1502      H1507   1.082       .  S
C1503      C1504   1.430       .  A
C1504      F1505   1.348       .  S
C1509      C1510   1.422       .  A
C1509      C1514   1.399       .  A
C1509      H1516   1.076       .  S
C1510      C1511   1.425       .  A
C1511      C1512   1.398       .  A
C1511      F1518   1.359       .  S
C1512      C1513   1.396       .  A
C1512      H1517   1.084       .  S
C1513      C1514   1.398       .  A
C1514      F2051   1.356       .  S
F1515      C2050   1.356       .  S
C1519      C1520   1.411       .  A
C1519      C1524   1.391       .  A
C1519      H1526   1.079       .  S
C1520      C1521   1.427       .  A
C1521      C1522   1.404       .  A
C1521      F1528   1.358       .  S
C1522      C1523   1.403       .  A
C1522      H2063   1.083       .  S
C1523      C1524   1.412       .  A
C1524      F1525   1.358       .  S
H1527      C2058   1.083   1_545  S
C1529      C1530   1.417       .  A
C1529      C1534   1.395       .  A
C1529      H1536   1.065       .  S
C1530      C1531   1.428       .  A
C1531      C1532   1.381       .  A
C1531      F1538   1.356       .  S
C1532      C1533   1.407       .  A
C1532      H1537   1.075       .  S
C1533      C1534   1.411       .  A
C1534      F1535   1.358       .  S
C1539      C1540   1.415       .  A
C1539      C1544   1.402       .  A
C1539      H1546   1.078       .  S
C1540      C1541   1.426       .  A
C1541      C1542   1.389       .  A
C1541      F1548   1.357       .  S
C1542      C1543   1.395       .  A
C1542      H1547   1.084       .  S
C1543      C1544   1.405       .  A
C1544      F1545   1.357       .  S
C1549      C1550   1.402       .  A
C1549      C1554   1.393       .  A
C1549      H1556   1.084       .  S
C1550      C1551   1.396       .  A
C1551      C1552   1.395       .  A
C1551      F1558   1.358       .  S
C1552      C1553   1.423       .  A
C1552      H1557   1.071       .  S
C1553      C1554   1.420       .  A
C1554      F1555   1.359       .  S
C1559      C1560   1.420       .  A
C1559      C1564   1.399       .  A
C1559      H1566   1.083       .  S
C1560      C1561   1.427       .  A
C1561      C1562   1.396       .  A
C1561      F1568   1.351       .  S
C1562      C1563   1.395       .  A
C1562      H1567   1.084       .  S
C1563      C1564   1.401       .  A
C1564      F1565   1.358       .  S
C1569      H1576   1.080       .  S
C1570      C1571   1.413       .  A
C1571      C1572   1.395       .  A
C1571      F1578   1.357       .  S
C1572      C1573   1.408       .  A
C1572      H1577   1.083       .  S
C1573      C1574   1.408       .  A
C1579      C1580   1.419   1_554  A
C1579      C1584   1.386       .  A
C1580      C1581   1.421       .  A
C1581      C1582   1.411       .  A
C1581      F1588   1.354       .  S
C1582      C1583   1.405       .  A
C1582      H1587   1.083       .  S
C1583      C1584   1.396   1_556  A
C1584      F1585   1.358       .  S
C1589      C1590   1.399       .  A
C1590      C1591   1.407       .  A
C1591      C1592   1.410       .  A
C1591      F1598   1.357       .  S
C1592      C1593   1.415       .  A
C1592      H1597   1.083       .  S
C1594      F1595   1.357       .  S
C1599      C1600   1.403       .  A
C1599      C1604   1.376       .  A
C1599      H1606   1.076       .  S
C1600      C1601   1.417       .  A
C1601      C1602   1.398       .  A
C1601      F1608   1.357       .  S
C1602      C1603   1.411       .  A
C1602      H1607   1.083       .  S
C1603      C1604   1.422       .  A
C1604      F1605   1.355       .  S
C1609      C2106   1.563   1_554  S
C1609      C2116   1.561   1_554  S
C1609      C2129   1.552   1_554  S
C1609      C1868   1.552       .  S
C1610      C1808   1.557       .  S
C1610      C1821   1.566       .  S
C1610      C1828   1.567       .  S
C1610      C1871   1.563       .  S
C1611      C1771   1.572       .  S
C1611      C1778   1.577       .  S
C1611      C1788   1.566       .  S
C1611      C1798   1.575       .  S
C1612      C1738   1.568       .  S
C1612      C1751   1.566       .  S
C1612      C1761   1.568       .  S
C1612      C1801   1.559       .  S
O1613     Zr1625   2.415       .  S
O1613      C1615   1.283       .  A
O1614     Zr1651   2.455       .  S
C1615      C1791   1.489       .  S
O1616     Zr1896   2.393   1_554  S
O1616      C1618   1.280   1_655  A
C1618      C1686   1.501       .  S
O1619     Zr1628   2.425       .  S
O1619      C1621   1.287       .  A
O1620     Zr1651   2.444       .  S
O1620      C1621   1.289       .  A
C1621      C1858   1.485       .  S
O1622     Zr1625   2.428       .  S
O1622      C1624   1.287       .  A
O1623      C1624   1.289       .  A
C1624      C1851   1.476       .  S
Zr1625     O1626   2.433       .  S
Zr1625     O1627   2.436       .  S
Zr1625     O1632   2.371       .  S
Zr1625     O1655   2.348       .  S
Zr1625     O1657   2.375       .  S
O1626      H1669   0.990       .  S
O1627      H1668   0.990       .  S
O1627      H1672   0.990       .  S
Zr1628     O1884   2.393       .  S
Zr1628     O1897   2.437       .  S
Zr1628     O1631   2.346       .  S
O1629     Zr1896   2.437   1_554  S
O1629      H1673   0.990       .  S
O1630      H1663   0.990       .  S
O1631     Zr1651   2.388       .  S
O1632      H1659   0.966       .  S
O1633      C1635   1.290       .  A
O1634      C1635   1.289       .  A
C1635      C1781   1.474       .  S
O1636     Zr1648   2.434       .  S
O1636      C1638   1.287       .  A
O1637      C1638   1.289       .  A
C1638      C1768   1.465       .  S
O1639     Zr1648   2.436       .  S
O1639      C1641   1.289       .  A
O1640     Zr1652   2.452       .  S
O1640      C1641   1.292       .  A
C1641      C1841   1.491       .  S
O1642     Zr1645   2.413       .  S
O1643     Zr1651   2.495       .  S
O1643      C1644   1.296       .  A
C1644      C1700   1.501       .  S
Zr1645     O1646   2.437       .  S
Zr1645     O1653   2.349       .  S
Zr1645     O1654   2.376       .  S
O1646      H1666   0.990       .  S
O1646      H1671   0.990       .  S
O1647      H1667   0.990       .  S
Zr1648     O1649   2.433       .  S
Zr1648     O1650   2.435       .  S
Zr1648     O1654   2.380       .  S
Zr1648     O1653   2.367       .  S
Zr1648     O1658   2.376       .  S
Zr1648     O1656   2.365       .  S
O1649      H1665   0.990       .  S
O1650      H1664   0.990       .  S
O1650      H1674   0.990       .  S
Zr1652     O1653   2.399       .  S
Zr1652     O1658   2.395       .  S
O1653      H1661   0.964       .  S
O1656      H1660   0.965       .  S
O1657      H1662   0.966       .  S
O1675     Zr1687   2.448       .  S
O1675      C1677   1.290       .  A
O1676     Zr1713   2.428       .  S
O1676      C1677   1.289       .  A
C1677      C1831   1.475       .  S
O1678     Zr1690   2.412       .  S
O1678      C1680   1.283       .  A
O1679      C1680   1.290       .  A
C1680      C1818   1.473       .  S
O1681     Zr1690   2.416       .  S
O1681      C1683   1.284       .  A
O1682     Zr1713   2.438       .  S
C1683      C1758   1.469       .  S
O1684     Zr1687   2.432       .  S
O1684      C1686   1.290   1_655  A
Zr1687     O1688   2.434       .  S
Zr1687     O1693   2.357       .  S
O1689      H1730   0.990       .  S
Zr1690     O1691   2.437       .  S
Zr1690     O1692   2.437       .  S
Zr1690     O1694   2.376       .  S
Zr1690     O1718   2.369       .  S
Zr1690     O1720   2.357       .  S
O1691      H1732   0.990       .  S
O1691      H1735   0.990       .  S
O1692      H1725   0.990       .  S
O1693     Zr1713   2.389       .  S
O1694      H1721   0.966       .  S
O1695     Zr1707   2.422       .  S
O1695      C1697   1.285       .  A
O1696     Zr1714   2.443       .  S
O1696      C1697   1.290       .  A
C1697      C1811   1.469       .  S
O1698     Zr1710   2.412       .  S
O1699     Zr1713   2.497       .  S
O1699      C1700   1.297       .  A
O1701      C1703   1.288       .  A
O1702      C1703   1.286       .  A
C1703      C1748   1.464       .  S
O1704     Zr1707   2.416       .  S
O1704      C1706   1.284       .  A
O1705      C1706   1.291       .  A
C1706      C1741   1.472       .  S
Zr1707     O1708   2.435       .  S
Zr1707     O1709   2.434       .  S
Zr1707     O1715   2.359       .  S
Zr1707     O1716   2.376       .  S
Zr1707     O1719   2.362       .  S
Zr1707     O1717   2.374       .  S
O1708      H1728   0.990       .  S
O1708      H1733   0.990       .  S
O1709      H1729   0.990       .  S
Zr1710     O1711   2.434       .  S
Zr1710     O1716   2.375       .  S
Zr1710     O1715   2.351       .  S
O1711      H1727   0.990       .  S
O1712      H1726   0.990       .  S
Zr1714     O1715   2.394       .  S
Zr1714     O1717   2.391       .  S
O1715      H1723   0.964       .  S
O1718      H1722   0.966       .  S
O1719      H1724   0.965       .  S
C1737      C1738   1.416       .  A
C1737      C1742   1.393       .  A
C1737      H1744   1.084       .  S
C1738      C1739   1.432       .  A
C1739      C1740   1.398       .  A
C1739      F1746   1.350       .  S
C1740      C1741   1.393       .  A
C1740      H1745   1.084       .  S
C1741      C1742   1.403       .  A
C1742      F1743   1.358       .  S
C1747      C1748   1.393       .  A
C1747      C1752   1.395       .  A
C1747      H1754   1.084       .  S
C1748      C1749   1.396       .  A
C1749      C1750   1.394       .  A
C1749      F1756   1.358   1_565  S
C1750      C1751   1.421       .  A
C1750      H1755   1.083       .  S
C1751      C1752   1.429       .  A
C1752      F1753   1.351       .  S
C1757      C1758   1.394       .  A
C1757      C1762   1.388       .  A
C1757      H1764   1.084       .  S
C1758      C1759   1.401       .  A
C1759      C1760   1.402       .  A
C1760      C1761   1.418       .  A
C1760      H1765   1.076       .  S
C1761      C1762   1.427       .  A
C1762      F1763   1.357       .  S
C1767      C1768   1.388       .  A
C1767      C1772   1.393       .  A
C1767      H1774   1.084       .  S
C1768      C1769   1.401       .  A
C1769      C1770   1.402       .  A
C1769      F1776   1.358       .  S
C1770      C1771   1.419       .  A
C1770      H1775   1.082       .  S
C1771      C1772   1.430       .  A
C1772      F1773   1.348       .  S
C1777      C1778   1.422       .  A
C1777      C1782   1.399       .  A
C1777      H1784   1.076       .  S
C1778      C1779   1.425       .  A
C1779      C1780   1.398       .  A
C1779      F1786   1.359       .  S
C1780      C1781   1.396       .  A
C1780      H1785   1.084       .  S
C1781      C1782   1.398       .  A
C1787      C1788   1.411       .  A
C1787      C1792   1.391       .  A
C1787      H1794   1.079       .  S
C1788      C1789   1.427       .  A
C1789      C1790   1.404       .  A
C1789      F1796   1.358       .  S
C1790      C1791   1.403       .  A
C1791      C1792   1.412       .  A
C1792      F1793   1.358       .  S
C1797      C1798   1.417       .  A
C1797      C1802   1.395       .  A
C1797      H1804   1.065       .  S
C1798      C1799   1.428       .  A
C1799      C1800   1.381       .  A
C1799      F1806   1.356       .  S
C1800      C1801   1.407       .  A
C1800      H1805   1.075       .  S
C1801      C1802   1.411       .  A
C1802      F1803   1.358       .  S
C1807      C1808   1.415       .  A
C1807      C1812   1.402       .  A
C1807      H1814   1.078       .  S
C1808      C1809   1.426       .  A
C1809      C1810   1.389       .  A
C1809      F1816   1.357       .  S
C1810      C1811   1.395       .  A
C1810      H1815   1.084       .  S
C1811      C1812   1.405       .  A
C1812      F1813   1.357       .  S
C1817      C1818   1.402       .  A
C1817      C1822   1.393       .  A
C1817      H1824   1.084       .  S
C1818      C1819   1.396       .  A
C1819      C1820   1.395       .  A
C1819      F1826   1.358       .  S
C1820      C1821   1.423       .  A
C1820      H1825   1.071       .  S
C1821      C1822   1.420       .  A
C1822      F1823   1.359       .  S
C1827      C1828   1.420       .  A
C1827      C1832   1.399       .  A
C1827      H1834   1.083       .  S
C1828      C1829   1.427       .  A
C1829      C1830   1.396       .  A
C1829      F1836   1.351       .  S
C1830      C1831   1.395       .  A
C1830      H1835   1.084       .  S
C1831      C1832   1.401       .  A
C1832      F1833   1.358       .  S
C1837      C2106   1.416       .  A
C1837      C2110   1.402       .  A
C1837      H1844   1.080   1_556  S
C1838      C1877   1.563       .  S
C1838      C2105   1.416       .  A
C1838      C1839   1.413       .  A
C1839      C1840   1.395       .  A
C1839      F1846   1.357       .  S
C1840      C1841   1.408       .  A
C1840      H1845   1.083       .  S
C1841      C1842   1.408       .  A
C1842      C2105   1.402       .  A
C1842      F2111   1.357       .  S
F1843      C2110   1.357   1_554  S
C1847      C1848   1.419       .  A
C1847      C1852   1.386       .  A
C1847      H2122   1.082       .  S
C1848      C1877   1.561       .  S
C1848      C1849   1.421       .  A
C1849      C1850   1.411       .  A
C1849      F1856   1.354       .  S
C1850      C1851   1.405       .  A
C1850      H1855   1.083       .  S
C1851      C1852   1.396       .  A
C1852      F1853   1.358       .  S
H1854      C2115   1.082       .  S
C1857      C1858   1.399       .  A
C1857      C2130   1.385       .  A
C1857      H2132   1.084       .  S
C1858      C1859   1.407       .  A
C1859      C1860   1.410       .  A
C1859      F1866   1.357       .  S
C1860      C1861   1.415       .  A
C1860      H1865   1.083       .  S
C1861      C1877   1.552       .  S
C1861      C2130   1.422       .  A
C1862      C2125   1.385   1_554  A
C1862      C2129   1.422   1_554  A
C1862      F1863   1.357       .  S
H1864      C2125   1.084   1_554  S
C1867      C1868   1.403       .  A
C1867      C1872   1.376       .  A
C1867      H1874   1.076       .  S
C1868      C1869   1.417       .  A
C1869      C1870   1.398       .  A
C1869      F1876   1.357       .  S
C1870      C1871   1.411       .  A
C1870      H1875   1.083       .  S
C1871      C1872   1.422       .  A
C1872      F1873   1.355       .  S
C1877      C2136   1.552       .  S
C1878      C2076   1.557       .  S
C1878      C2089   1.566       .  S
C1878      C2096   1.567       .  S
C1878      C2139   1.563       .  S
C1879      C2039   1.572       .  S
C1879      C2046   1.577       .  S
C1879      C2056   1.566       .  S
C1879      C2066   1.575       .  S
C1880      C2006   1.568       .  S
C1880      C2019   1.566       .  S
C1880      C2029   1.568       .  S
C1880      C2069   1.559       .  S
O1881     Zr1893   2.415       .  S
O1881      C1883   1.283       .  A
O1882     Zr1919   2.455       .  S
C1883      C2059   1.489       .  S
O1884      C1886   1.280   1_655  A
C1886      C1954   1.501       .  S
O1887     Zr1896   2.425       .  S
O1887      C1889   1.287       .  A
O1888     Zr1919   2.444       .  S
O1888      C1889   1.289       .  A
C1889      C2126   1.485       .  S
O1890     Zr1893   2.428       .  S
O1890      C1892   1.287       .  A
O1891      C1892   1.289       .  A
C1892      C2119   1.476       .  S
Zr1893     O1894   2.433       .  S
Zr1893     O1895   2.436       .  S
Zr1893     O1900   2.371       .  S
Zr1893     O1923   2.348       .  S
Zr1893     O1925   2.375       .  S
O1894      H1937   0.990       .  S
O1895      H1936   0.990       .  S
O1895      H1940   0.990       .  S
Zr1896     O1899   2.346       .  S
O1897      H1941   0.990       .  S
O1898      H1931   0.990       .  S
O1899     Zr1919   2.388       .  S
O1900      H1927   0.966   1_556  S
O1901      C1903   1.290       .  A
O1902      C1903   1.289       .  A
C1903      C2049   1.474       .  S
O1904     Zr1916   2.434       .  S
O1904      C1906   1.287       .  A
O1905      C1906   1.289       .  A
C1906      C2036   1.465       .  S
O1907     Zr1916   2.436       .  S
O1907      C1909   1.289       .  A
O1908     Zr1920   2.452       .  S
O1908      C1909   1.292       .  A
C1909      C2109   1.491       .  S
O1910     Zr1913   2.413       .  S
O1911     Zr1919   2.495       .  S
O1911      C1912   1.296       .  A
C1912      C1968   1.501       .  S
Zr1913     O1914   2.437       .  S
Zr1913     O1921   2.349       .  S
Zr1913     O1922   2.376       .  S
O1914      H1934   0.990       .  S
O1914      H1939   0.990       .  S
O1915      H1935   0.990       .  S
Zr1916     O1917   2.433       .  S
Zr1916     O1918   2.435       .  S
Zr1916     O1922   2.380       .  S
Zr1916     O1921   2.367       .  S
Zr1916     O1926   2.376       .  S
Zr1916     O1924   2.365       .  S
O1917      H1933   0.990       .  S
O1918      H1932   0.990       .  S
O1918      H1942   0.990       .  S
Zr1920     O1921   2.399       .  S
Zr1920     O1926   2.395       .  S
O1921      H1929   0.964       .  S
O1924      H1928   0.965       .  S
O1925      H1930   0.966       .  S
O1943     Zr1955   2.448       .  S
O1943      C1945   1.290       .  A
O1944     Zr1981   2.428       .  S
O1944      C1945   1.289       .  A
C1945      C2099   1.475       .  S
O1946     Zr1958   2.412       .  S
O1946      C1948   1.283       .  A
O1947      C1948   1.290       .  A
C1948      C2086   1.473       .  S
O1949     Zr1958   2.416       .  S
O1949      C1951   1.284       .  A
O1950     Zr1981   2.438       .  S
C1951      C2026   1.469       .  S
O1952     Zr1955   2.432       .  S
O1952      C1954   1.290   1_655  A
Zr1955     O1956   2.434       .  S
Zr1955     O1961   2.357       .  S
O1957      H1998   0.990       .  S
Zr1958     O1959   2.437       .  S
Zr1958     O1960   2.437       .  S
Zr1958     O1962   2.376       .  S
Zr1958     O1986   2.369       .  S
Zr1958     O1988   2.357       .  S
O1959      H2000   0.990       .  S
O1959      H2003   0.990       .  S
O1960      H1993   0.990       .  S
O1961     Zr1981   2.389       .  S
O1962      H1989   0.966       .  S
O1963     Zr1975   2.422       .  S
O1963      C1965   1.285       .  A
O1964     Zr1982   2.443       .  S
O1964      C1965   1.290       .  A
C1965      C2079   1.469       .  S
O1966     Zr1978   2.412       .  S
O1967     Zr1981   2.497       .  S
O1967      C1968   1.297       .  A
O1969      C1971   1.288       .  A
O1970      C1971   1.286       .  A
C1971      C2016   1.464       .  S
O1972     Zr1975   2.416       .  S
O1972      C1974   1.284       .  A
O1973      C1974   1.291       .  A
C1974      C2009   1.472       .  S
Zr1975     O1976   2.435       .  S
Zr1975     O1977   2.434       .  S
Zr1975     O1983   2.359       .  S
Zr1975     O1984   2.376       .  S
Zr1975     O1987   2.362       .  S
Zr1975     O1985   2.374       .  S
O1976      H1996   0.990       .  S
O1976      H2001   0.990       .  S
O1977      H1997   0.990       .  S
Zr1978     O1979   2.434       .  S
Zr1978     O1984   2.375       .  S
Zr1978     O1983   2.351       .  S
O1979      H1995   0.990       .  S
O1980      H1994   0.990       .  S
Zr1982     O1983   2.394       .  S
Zr1982     O1985   2.391       .  S
O1983      H1991   0.964       .  S
O1986      H1990   0.966       .  S
O1987      H1992   0.965       .  S
C2005      C2006   1.416       .  A
C2005      C2010   1.393       .  A
C2005      H2012   1.084       .  S
C2006      C2007   1.432       .  A
C2007      C2008   1.398       .  A
C2007      F2014   1.350       .  S
C2008      C2009   1.393       .  A
C2008      H2013   1.084       .  S
C2009      C2010   1.403       .  A
C2010      F2011   1.358       .  S
C2015      C2016   1.393       .  A
C2015      C2020   1.395       .  A
C2015      H2022   1.084       .  S
C2016      C2017   1.396       .  A
C2017      C2018   1.394       .  A
C2017      F2024   1.358   1_565  S
C2018      C2019   1.421       .  A
C2018      H2023   1.083       .  S
C2019      C2020   1.429       .  A
C2020      F2021   1.351       .  S
C2025      C2026   1.394       .  A
C2025      C2030   1.388       .  A
C2025      H2032   1.084       .  S
C2026      C2027   1.401       .  A
C2027      C2028   1.402       .  A
C2028      C2029   1.418       .  A
C2028      H2033   1.076       .  S
C2029      C2030   1.427       .  A
C2030      F2031   1.357       .  S
C2035      C2036   1.388       .  A
C2035      C2040   1.393       .  A
C2035      H2042   1.084       .  S
C2036      C2037   1.401       .  A
C2037      C2038   1.402       .  A
C2037      F2044   1.358       .  S
C2038      C2039   1.419       .  A
C2038      H2043   1.082       .  S
C2039      C2040   1.430       .  A
C2040      F2041   1.348       .  S
C2045      C2046   1.422       .  A
C2045      C2050   1.399       .  A
C2045      H2052   1.076       .  S
C2046      C2047   1.425       .  A
C2047      C2048   1.398       .  A
C2047      F2054   1.359       .  S
C2048      C2049   1.396       .  A
C2048      H2053   1.084       .  S
C2049      C2050   1.398       .  A
C2055      C2056   1.411       .  A
C2055      C2060   1.391       .  A
C2055      H2062   1.079       .  S
C2056      C2057   1.427       .  A
C2057      C2058   1.404       .  A
C2057      F2064   1.358       .  S
C2058      C2059   1.403       .  A
C2059      C2060   1.412       .  A
C2060      F2061   1.358       .  S
C2065      C2066   1.417       .  A
C2065      C2070   1.395       .  A
C2065      H2072   1.065       .  S
C2066      C2067   1.428       .  A
C2067      C2068   1.381       .  A
C2067      F2074   1.356       .  S
C2068      C2069   1.407       .  A
C2068      H2073   1.075       .  S
C2069      C2070   1.411       .  A
C2070      F2071   1.358       .  S
C2075      C2076   1.415       .  A
C2075      C2080   1.402       .  A
C2075      H2082   1.078       .  S
C2076      C2077   1.426       .  A
C2077      C2078   1.389       .  A
C2077      F2084   1.357       .  S
C2078      C2079   1.395       .  A
C2078      H2083   1.084       .  S
C2079      C2080   1.405       .  A
C2080      F2081   1.357       .  S
C2085      C2086   1.402       .  A
C2085      C2090   1.393       .  A
C2085      H2092   1.084       .  S
C2086      C2087   1.396       .  A
C2087      C2088   1.395       .  A
C2087      F2094   1.358       .  S
C2088      C2089   1.423       .  A
C2088      H2093   1.071       .  S
C2089      C2090   1.420       .  A
C2090      F2091   1.359       .  S
C2095      C2096   1.420       .  A
C2095      C2100   1.399       .  A
C2095      H2102   1.083       .  S
C2096      C2097   1.427       .  A
C2097      C2098   1.396       .  A
C2097      F2104   1.351       .  S
C2098      C2099   1.395       .  A
C2098      H2103   1.084       .  S
C2099      C2100   1.401       .  A
C2100      F2101   1.358       .  S
C2105      H2112   1.080       .  S
C2106      C2107   1.413       .  A
C2107      C2108   1.395       .  A
C2107      F2114   1.357       .  S
C2108      C2109   1.408       .  A
C2108      H2113   1.083       .  S
C2109      C2110   1.408       .  A
C2115      C2116   1.419   1_554  A
C2115      C2120   1.386       .  A
C2116      C2117   1.421       .  A
C2117      C2118   1.411       .  A
C2117      F2124   1.354       .  S
C2118      C2119   1.405       .  A
C2118      H2123   1.083       .  S
C2119      C2120   1.396   1_556  A
C2120      F2121   1.358       .  S
C2125      C2126   1.399       .  A
C2126      C2127   1.407       .  A
C2127      C2128   1.410       .  A
C2127      F2134   1.357       .  S
C2128      C2129   1.415       .  A
C2128      H2133   1.083       .  S
C2130      F2131   1.357       .  S
C2135      C2136   1.403       .  A
C2135      C2140   1.376       .  A
C2135      H2142   1.076       .  S
C2136      C2137   1.417       .  A
C2137      C2138   1.398       .  A
C2137      F2144   1.357       .  S
C2138      C2139   1.411       .  A
C2138      H2143   1.083       .  S
C2139      C2140   1.422       .  A
C2140      F2141   1.355       .  S
