geometry optimzed in LAMMPS
_audit_creation_date              2020-11-30 
_audit_creation_method            'lammps2cif' 
_symmetry_space_group_name_H-M    'P1' 
_symmetry_Int_Tables_number       1 
_symmetry_cell_setting            triclinic 
loop_ 
_symmetry_equiv_pos_as_xyz 
  x,y,z 
_cell_length_a                    36.56166369022319 
_cell_length_b                    36.78754014125274 
_cell_length_c                    47.436428069220824 
_cell_angle_alpha                 89.72389257703857 
_cell_angle_beta                  89.62247768855467 
_cell_angle_gamma                 120.63182097036487 
loop_ 
_atom_site_label 
_atom_site_type_symbol 
_atom_site_fract_x 
_atom_site_fract_y 
_atom_site_fract_z 
_atom_site_charge 
C1          C  0.33333326  0.17236299  0.00636937    -0.02120
C2          C  0.33491874  0.16747304  0.13241709    -0.02120
C3          C  0.15941614  0.34256459  0.38031496    -0.02120
C4          C  0.15810094  0.33706521  0.25317181    -0.02120
C5          C  0.42592105  0.08355850  0.47959229     0.42820
N6          N  0.43967786  0.03335391  0.47766210     0.01710
C7          C  0.13745983  0.06291607  0.44184213    -0.06160
H8          H  0.08883830  0.13340881  0.37623034     0.07210
C9          C  0.46084115  0.48098773  0.34962043    -0.06510
Co10       Co  0.03341273  0.06682823  0.47355637     0.74180
N11         N  0.06016792  0.09735227  0.41429145    -0.25690
Co12       Co  0.05681821  0.03966976  0.40868511     0.74070
C13         C  0.49153982  0.01640652  0.33220483     0.42930
N14         N  0.40435847  0.44929156  0.41498045     0.01330
N15         N  0.01542889  0.02353022  0.37444779     0.01440
N16         N  0.12295451  0.08166815  0.48390373    -0.46540
H17         H  0.49709153  0.13429409  0.47874715     0.07190
N18         N  0.05185335  0.10768525  0.43916336     0.01720
N19         N  0.05320387  0.48177935  0.40532756     0.01460
C20         C  0.06946013  0.43344988  0.40378888     0.43070
N21         N  0.39510499  0.45946063  0.43956687    -0.25150
C22         C  0.03101887  0.03055430  0.03387547    -0.06070
N23         N  0.40796698  0.04104838  0.47903008    -0.46250
N24         N  0.08578384  0.47556773  0.40436025    -0.46480
C25         C  0.49955780  0.49474300  0.05091687     0.42840
N26         N  0.08927540  0.06516665  0.46738689     0.01710
N27         N  0.43238839  0.41686375  0.46895567    -0.25170
N28         N  0.47732588  0.06822895  0.47756186    -0.25660
N29         N  0.44161696  0.40644134  0.44445326     0.01350
H30         H  0.40660283  0.38224203  0.00782884     0.07240
H31         H  0.99852102  0.38090450  0.40485531     0.07270
N32         N  0.09751952  0.05504388  0.44245855    -0.25710
N33         N  0.47850063  0.48784281  0.37517079    -0.25320
N34         N  0.47615160  0.48999809  0.00865632     0.01710
C35         C  0.07779173  0.16454670  0.41482234     0.43110
C36         C  0.35611718  0.45422261  0.43826566    -0.06570
N37         N  0.01619318  0.44628183  0.40578916    -0.25320
H38         H  0.43216429  0.45260712  0.34334474     0.07260
N39         N  0.06208529  0.14766903  0.44039744    -0.46540
H40         H  0.33892143  0.45771958  0.45566234     0.07250
C41         C  0.41973553  0.35092306  0.47014320     0.42950
C42         C  0.47191619  0.10154390  0.47897524    -0.06070
Co43       Co  0.43518635  0.47453858  0.47414756     0.73820
N44         N  0.37295522  0.43642295  0.39673153    -0.46260
C45         C  0.15468666  0.08143100  0.46911937     0.43210
N46         N  0.46621144  0.47129684  0.03388082    -0.46250
Co47       Co  0.45970912  0.44689279  0.40974722     0.73890
C48         C  0.02306434  0.41387381  0.40458416    -0.06580
C49         C  0.07624753  0.13129482  0.39725855    -0.06140
N50         N  0.01371598  0.02507395  0.00819765    -0.25670
N51         N  0.02488226  0.04121661  0.34892625    -0.46430
H52         H  0.15311119  0.05931582  0.42357772     0.07220
C53         C  0.41840357  0.38381442  0.48662513    -0.06550
Cl54       Cl  0.49629908  0.00701337  0.44156293    -0.49560
C55         C  0.34185750  0.43986093  0.40967015     0.42970
H56         H  0.06019716  0.05811718  0.04048337     0.07190
N57         N  0.43388164  0.36715203  0.44413214    -0.46270
C58         C  0.34115347  0.43439493  0.22588127     0.42820
N59         N  0.39492458  0.45209461  0.19873188     0.01710
C60         C  0.09005729  0.47533882  0.22734035    -0.06160
H61         H  0.05838098  0.07349745  0.28821069     0.07210
C62         C  0.05398199  0.14217869  0.18949156    -0.06510
Co63       Co  0.46377556  0.44544117  0.22725274     0.74180
N64         N  0.02078211  0.02545019  0.25779396    -0.25690
Co65       Co  0.05917192  0.03982861  0.22182520     0.74070
C66         C  0.07062806  0.15908450  0.21725845     0.42930
N67         N  0.47120427  0.05828059  0.15496026     0.01330
N68         N  0.05899478  0.09574482  0.21466418     0.01440
N69         N  0.02722538  0.41381534  0.23019773    -0.46540
H70         H  0.37364001  0.42245644  0.26329808     0.07190
N71         N  0.48413200  0.48960874  0.25975802     0.01720
N72         N  0.09686004  0.05323989  0.18598658     0.01460
C73         C  0.15151642  0.07361190  0.15956402     0.43070
N74         N  0.43453666  0.02256949  0.15746283    -0.25150
C75         C  0.43425857  0.36200059  0.19681611    -0.06070
N76         N  0.35571188  0.44520459  0.19919461    -0.46250
N77         N  0.13639899  0.06127530  0.18595292    -0.46480
C78         C  0.41517478  0.34354478  0.16993711     0.42840
N79         N  0.02167260  0.44673306  0.22908313     0.01710
N80         N  0.47133474  0.48028242  0.12616997    -0.25170
N81         N  0.40668385  0.44489588  0.22339879    -0.25660
N82         N  0.00831079  0.01597775  0.12454971     0.01350
H83         H  0.43249470  0.43516643  0.09451514     0.07240
H84         H  0.11917959  0.08486404  0.12179777     0.07270
N85         N  0.05791938  0.48298018  0.22716040    -0.25710
N86         N  0.04776864  0.10304572  0.18986449    -0.25320
N87         N  0.43199102  0.40871637  0.17007668     0.01710
C88         C  0.49327457  0.01670972  0.30108271     0.43110
C89         C  0.40319097  0.03145271  0.15751143    -0.06570
N90         N  0.08536660  0.06057082  0.16127802    -0.25320
H91         H  0.04899906  0.15725405  0.17154515     0.07260
N92         N  0.46695781  0.48294684  0.28534042    -0.46540
H93         H  0.36960248  0.00874042  0.15968013     0.07250
C94         C  0.49806912  0.49189587  0.08218597     0.42950
C95         C  0.37457847  0.43319798  0.24189778    -0.06070
Co96       Co  0.43260810  0.46530271  0.16262163     0.73820
N97         N  0.46688721  0.09173182  0.15312821    -0.46260
C98         C  0.06964986  0.42932488  0.22874150     0.43210
N99         N  0.41398090  0.37408413  0.15454311    -0.46250
Co100      Co  0.02845227  0.05972310  0.15723452     0.73890
C101        C  0.11793159  0.07344634  0.14304119    -0.06580
C102        C  0.02921934  0.04494867  0.28284867    -0.06140
N103        N  0.44354067  0.40201515  0.19498028    -0.25670
N104        N  0.07349747  0.12871112  0.23155860    -0.46430
H105        H  0.12339513  0.49910705  0.22588197     0.07220
C106        C  0.46225281  0.46264897  0.10039101    -0.06550
Cl107      Cl  0.49598891  0.00247467  0.19218452    -0.49560
C108        C  0.42495671  0.07743055  0.15469950     0.42970
H109        H  0.43719354  0.34708592  0.21566896     0.07190
N110        N  0.02489219  0.02421823  0.09872965    -0.46270
C111        C  0.09971636  0.23567235  0.20685983    -0.11900
C112        C  0.08844833  0.20324819  0.22677181     0.05110
C113        C  0.09586430  0.21382226  0.25539806    -0.07190
C114        C  0.11741516  0.25631284  0.26312323    -0.07930
C115        C  0.13311147  0.28998753  0.24329746    -0.02480
C116        C  0.12107419  0.27845525  0.21456740     0.04330
N117        N  0.12828103  0.30900635  0.19296424     0.66840
H118        H  0.09282904  0.22805321  0.18480163     0.15740
H119        H  0.12007166  0.26202712  0.28525471     0.15450
N120        N  0.08025919  0.18190423  0.27713613     0.74540
O121        O  0.09795948  0.30311189  0.17732394    -0.38910
O122        O  0.16545806  0.33784414  0.18648287    -0.38850
O123        O  0.10320368  0.18599875  0.29804938    -0.39550
O124        O  0.04170642  0.15283304  0.27748372    -0.39620
C125        C  0.06845965  0.36360877  0.24276996    -0.11900
C126        C  0.09020512  0.40331314  0.22963404     0.05110
C127        C  0.13156893  0.41780372  0.21885327    -0.07190
C128        C  0.15200290  0.39505524  0.22487240    -0.07930
C129        C  0.13245970  0.35764240  0.24147812    -0.02480
C130        C  0.08841992  0.34040695  0.24823983     0.04330
N131        N  0.06374588  0.30035318  0.26211088     0.66840
H132        H  0.03596370  0.35096753  0.24994997     0.15740
H133        H  0.18335638  0.40709631  0.21600434     0.15450
N134        N  0.15281732  0.45455432  0.20091744     0.74540
O135        O  0.05552984  0.29925013  0.28807221    -0.38910
O136        O  0.04042159  0.26833381  0.24741554    -0.38850
O137        O  0.19251836  0.47904750  0.20258113    -0.39550
O138        O  0.13318794  0.45917590  0.18071266    -0.39620
C139        C  0.23127333  0.40361063  0.25297881    -0.11900
C140        C  0.20599973  0.36141031  0.24333822     0.05110
C141        C  0.22789597  0.34430327  0.22812765    -0.07190
C142        C  0.27160137  0.36956769  0.22267403    -0.07930
C143        C  0.29552169  0.41064712  0.23282700    -0.02480
C144        C  0.27534906  0.42816005  0.24828658     0.04330
N145        N  0.29857719  0.47051027  0.25925699     0.66840
H146        H  0.21626131  0.41744025  0.26506326     0.15740
H147        H  0.28756470  0.35622366  0.21102695     0.15450
N148        N  0.20829641  0.30130317  0.21912083     0.74540
O149        O  0.27951734  0.99022326  0.26479560    -0.38910
O150        O  0.33737544  0.48735841  0.26542934    -0.38850
O151        O  0.20955204  0.29396877  0.19326345    -0.39550
O152        O  0.20269465  0.27311659  0.23676330    -0.39620
C153        C  0.08999406  0.21919315  0.38031276    -0.11900
C154        C  0.09696128  0.20951739  0.40737190     0.05110
C155        C  0.11924961  0.24241600  0.42679215    -0.07190
C156        C  0.13611387  0.28447319  0.41778918    -0.07930
C157        C  0.13374566  0.29500832  0.38944428    -0.02480
C158        C  0.10525460  0.26088349  0.37161995     0.04330
N159        N  0.08612953  0.26674495  0.34692578     0.66840
H160        H  0.06952703  0.19358709  0.36642700     0.15740
H161        H  0.15389799  0.30963871  0.43263500     0.15450
N162        N  0.12793035  0.23425783  0.45489745     0.74540
O163        O  0.07538476  0.24083145  0.32697467    -0.38910
O164        O  0.06917091  0.28913079  0.34843243    -0.38850
O165        O  0.14183244  0.20949988  0.45885671    -0.39550
O166        O  0.12891456  0.25711989  0.47498529    -0.39620
C167        C  0.16004508  0.41040410  0.39812700    -0.11900
C168        C  0.13773213  0.36567858  0.39541098     0.05110
C169        C  0.09341105  0.34496283  0.40355490    -0.07190
C170        C  0.07292047  0.36812213  0.40625390    -0.07930
C171        C  0.09452434  0.41191302  0.40320131    -0.02480
C172        C  0.13921856  0.43350794  0.40084118     0.04330
N173        N  0.16415077  0.47873487  0.39893270     0.66840
H174        H  0.19384558  0.42919355  0.39682064     0.15740
H175        H  0.03937039  0.35104982  0.41139246     0.15450
N176        N  0.06936868  0.30227764  0.41369351     0.74540
O177        O  0.19592153  0.49862009  0.41468037    -0.38910
O178        O  0.16060133  0.49740958  0.37764875    -0.38850
O179        O  0.07129224  0.29585527  0.43967353    -0.39550
O180        O  0.03631990  0.27629580  0.40070075    -0.39620
C181        C  0.23629544  0.40522361  0.37473476    -0.11900
C182        C  0.20897880  0.36482393  0.38732086     0.05110
C183        C  0.23081860  0.34739150  0.40239611    -0.07190
C184        C  0.27290590  0.37415176  0.41094606    -0.07930
C185        C  0.29713009  0.41559157  0.40110778    -0.02480
C186        C  0.27950565  0.43076110  0.38136644     0.04330
N187        N  0.30442394  0.47153168  0.36779279     0.66840
H188        H  0.22335367  0.41794889  0.35980066     0.15740
H189        H  0.28836862  0.36127253  0.42356867     0.15450
N190        N  0.21519759  0.30299656  0.40571585     0.74540
O191        O  0.29313571  0.47871691  0.34431189    -0.38910
O192        O  0.33680097  0.50108416  0.37947237    -0.38850
O193        O  0.20503292  0.27970786  0.38432207    -0.39550
O194        O  0.22131549  0.28932200  0.42862248    -0.39620
C195        C  0.17959945  0.32668264  0.33270403    -0.11900
C196        C  0.15948861  0.34524751  0.34723922     0.05110
C197        C  0.14395915  0.36636679  0.33017268    -0.07190
C198        C  0.14546741  0.36453465  0.30076310    -0.07930
C199        C  0.16075223  0.34125304  0.28635394    -0.02480
C200        C  0.18206305  0.32591663  0.30337674     0.04330
N201        N  0.20652714  0.30911888  0.29173075     0.66840
H202        H  0.19454825  0.31271568  0.34440510     0.15740
H203        H  0.13458053  0.38273607  0.28951731     0.15450
N204        N  0.12621601  0.39005698  0.34123156     0.74540
O205        O  0.24568223  0.33421482  0.28735031    -0.38910
O206        O  0.19409415  0.27063716  0.29611145    -0.38850
O207        O  0.14738970  0.42969682  0.33817534    -0.39550
O208        O  0.08628605  0.37224862  0.34318712    -0.39620
C209        C  0.26927780  0.15057684  0.16322433    -0.11900
C210        C  0.28597686  0.13812476  0.14041356     0.05110
C211        C  0.25594806  0.09852325  0.12750433    -0.07190
C212        C  0.21221801  0.08110108  0.13236183    -0.07930
C213        C  0.19701687  0.09703746  0.15283104    -0.02480
C214        C  0.22582740  0.13125666  0.16922408     0.04330
N215        N  0.21166555  0.14795208  0.19138894     0.66840
H216        H  0.28986847  0.17676005  0.17650860     0.15740
H217        H  0.18980002  0.05199744  0.12198962     0.15450
N218        N  0.26736973  0.07097692  0.11377464     0.74540
O219        O  0.23344060  0.16240308  0.21342834    -0.38910
O220        O  0.18030339  0.15290757  0.18767147    -0.38850
O221        O  0.28634453  0.05622999  0.12753404    -0.39550
O222        O  0.24784577  0.05160812  0.09188735    -0.39620
C223        C  0.35705307  0.28172990  0.14576128    -0.11900
C224        C  0.39286764  0.29810996  0.16289420     0.05110
C225        C  0.40546135  0.27050161  0.17387451    -0.07190
C226        C  0.38384188  0.22808371  0.16592207    -0.07930
C227        C  0.35139317  0.21225050  0.14546151    -0.02480
C228        C  0.33559176  0.23943547  0.13707841     0.04330
N229        N  0.30247474  0.22748764  0.11655994     0.66840
H230        H  0.34613221  0.30244379  0.13828529     0.15740
H231        H  0.39501576  0.20850591  0.17487093     0.15450
N232        N  0.44191053  0.28524686  0.19161329     0.74540
O233        O  0.30875416  0.25222053  0.09615622    -0.38950
O234        O  0.26459699  0.20002838  0.12256165    -0.38850
O235        O  0.44004576  0.26410826  0.21319052    -0.39550
O236        O  0.47759388  0.31518153  0.18334000    -0.39620
C237        C  0.40190052  0.16218860  0.13232491    -0.11900
C238        C  0.36081464  0.14726206  0.14371183     0.05110
C239        C  0.34622202  0.11420398  0.16434245    -0.07190
C240        C  0.36724565  0.09140014  0.16722642    -0.07930
C241        C  0.40582940  0.10429690  0.15326981    -0.02480
C242        C  0.42492741  0.14226421  0.13765305     0.04330
N243        N  0.46737117  0.16095309  0.12666735     0.66840
H244        H  0.41620943  0.18906208  0.11841902     0.15740
H245        H  0.35418038  0.06437808  0.18139565     0.15450
N246        N  0.31226916  0.10475722  0.18372800     0.74540
O247        O  0.47444046  0.17069441  0.10084531    -0.38910
O248        O  0.49808915  0.17713768  0.14356058    -0.38850
O249        O  0.28247811  0.06701268  0.18711511    -0.39550
O250        O  0.31788198  0.13152222  0.20229611    -0.39620
C251        C  0.20785171  0.10875083  0.00660523    -0.11900
C252        C  0.19977298  0.10438352  0.47784089     0.05110
C253        C  0.23448317  0.12325094  0.45871725    -0.07190
C254        C  0.27610696  0.14420379  0.46899481    -0.07930
C255        C  0.28518235  0.14751232  0.49812214    -0.02480
C256        C  0.24913974  0.13070998  0.01717331     0.04330
N257        N  0.25200379  0.13652069  0.04711814     0.66840
H258        H  0.18135392  0.09575367  0.02139960     0.15740
H259        H  0.30211968  0.15859539  0.45386783     0.15450
N260        N  0.22854456  0.12397550  0.42894087     0.74540
O261        O  0.26028404  0.17160748  0.05699156    -0.38910
O262        O  0.23236382  0.10438406  0.06282771    -0.38850
O263        O  0.20930908  0.14169381  0.41937317    -0.39550
O264        O  0.24913182  0.11431793  0.41215832    -0.39620
C265        C  0.38597786  0.23428804  0.47297437    -0.11900
C266        C  0.35212836  0.21804167  0.49301858     0.05110
C267        C  0.33668417  0.24562737  0.00014342    -0.07190
C268        C  0.36019605  0.28846880  0.49294821    -0.07930
C269        C  0.39739846  0.30524447  0.47689127    -0.02480
C270        C  0.40973580  0.27754525  0.46578467     0.04330
N271        N  0.44742793  0.29284355  0.44860584     0.66840
H272        H  0.39618645  0.21412954  0.46373855     0.15740
H273        H  0.34825151  0.30873539  0.99948395     0.15450
N274        N  0.29728829  0.23165894  0.01458121     0.74540
O275        O  0.48119068  0.32620368  0.45523359    -0.38910
O276        O  0.44889961  0.27001759  0.42935817    -0.38850
O277        O  0.29759622  0.25090028  0.03662467    -0.39550
O278        O  0.26364388  0.21394914  0.00034195    -0.39620
C279        C  0.33967295  0.11306021  0.47999059    -0.11900
C280        C  0.35912097  0.15128683  0.49545554     0.05110
C281        C  0.40245325  0.16737792  0.50353860    -0.07190
C282        C  0.42324800  0.14543170  0.49690933    -0.07930
C283        C  0.40292965  0.10699531  0.48272936    -0.02480
C284        C  0.36093228  0.09116686  0.47344516     0.04330
N285        N  0.33942873  0.05324235  0.45708984     0.66840
H286        H  0.30696598  0.09820162  0.47378672     0.15740
H287        H  0.45537048  0.15791294  0.50438758     0.15450
N288        N  0.42529698  0.20410492  0.52069878     0.74540
O289        O  0.30003847  0.02806189  0.96050136    -0.38910
O290        O  0.35829535  0.04784756  0.43658769    -0.38850
O291        O  0.43189981  0.19897404  0.04610318    -0.39550
O292        O  0.45026769  0.23910215  0.50893468    -0.39620
C293        C  0.35763890  0.21090659  0.05406811    -0.11900
C294        C  0.33820362  0.17280205  0.03895332     0.05110
C295        C  0.32942238  0.13580057  0.05446419    -0.07190
C296        C  0.33449611  0.13778388  0.08359494    -0.07930
C297        C  0.34271245  0.17320255  0.09935822    -0.02480
C298        C  0.36282174  0.21211067  0.08337974     0.04330
N299        N  0.39400632  0.25240286  0.09475561     0.66840
H300        H  0.37327287  0.24079748  0.04311007     0.15740
H301        H  0.33412853  0.11153229  0.09381922     0.15450
N302        N  0.31730061  0.09620593  0.04129010     0.74540
O303        O  0.39627721  0.28581279  0.08560091    -0.38910
O304        O  0.42518210  0.25576542  0.10822025    -0.38850
O305        O  0.33887280  0.07877208  0.04573231    -0.39550
O306        O  0.28118398  0.07483698  0.03026195    -0.39620
C307        C  0.33333325  0.17236296  0.50636937    -0.02120
C308        C  0.33491880  0.16747310  0.63241709    -0.02120
C309        C  0.15941615  0.34256458  0.88031496    -0.02120
C310        C  0.15810097  0.33706523  0.75317182    -0.02120
C311        C  0.42592106  0.08355851  0.97959230     0.42820
N312        N  0.43967787  0.03335392  0.97766210     0.01710
C313        C  0.13745983  0.06291604  0.94184215    -0.06160
H314        H  0.08883832  0.13340881  0.87623035     0.07210
C315        C  0.46084117  0.48098776  0.84962042    -0.06510
Co316      Co  0.03341273  0.06682823  0.97355637     0.74180
N317        N  0.06016794  0.09735227  0.91429146    -0.25690
Co318      Co  0.05681823  0.03966976  0.90868512     0.74070
C319        C  0.49153987  0.01640658  0.83220483     0.42930
N320        N  0.40435848  0.44929157  0.91498045     0.01330
N321        N  0.01542892  0.02353023  0.87444779     0.01440
N322        N  0.12295451  0.08166815  0.98390374    -0.46540
H323        H  0.49709155  0.13429410  0.97874717     0.07190
N324        N  0.05185336  0.10768525  0.93916337     0.01720
N325        N  0.05320389  0.48177936  0.90532756     0.01460
C326        C  0.06946015  0.43344988  0.90378888     0.43070
N327        N  0.39510500  0.45946063  0.93956686    -0.25150
C328        C  0.03101888  0.03055431  0.53387547    -0.06070
N329        N  0.40796699  0.04104839  0.97903009    -0.46250
N330        N  0.08578386  0.47556773  0.90436025    -0.46480
C331        C  0.49955781  0.49474303  0.55091688     0.42840
N332        N  0.08927540  0.06516664  0.96738690     0.01710
N333        N  0.43238841  0.41686376  0.96895566    -0.25170
N334        N  0.47732589  0.06822896  0.97756187    -0.25660
N335        N  0.44161698  0.40644135  0.94445325     0.01350
H336        H  0.40660276  0.38224201  0.50782884     0.07240
H337        H  0.99852103  0.38090451  0.90485529     0.07270
N338        N  0.09751952  0.05504386  0.94245857    -0.25710
N339        N  0.47850064  0.48784283  0.87517079    -0.25320
N340        N  0.47615160  0.48999810  0.50865633     0.01710
C341        C  0.07779176  0.16454670  0.91482235     0.43110
C342        C  0.35611718  0.45422261  0.93826566    -0.06570
N343        N  0.01619320  0.44628184  0.90578916    -0.25320
H344        H  0.43216431  0.45260715  0.84334474     0.07260
N345        N  0.06208531  0.14766903  0.94039745    -0.46540
H346        H  0.33892144  0.45771958  0.95566234     0.07250
C347        C  0.41973560  0.35092309  0.97014319     0.42950
C348        C  0.47191621  0.10154391  0.97897526    -0.06070
Co349      Co  0.43518635  0.47453859  0.97414756     0.73820
N350        N  0.37295522  0.43642296  0.89673152    -0.46260
C351        C  0.15468666  0.08143098  0.96911939     0.43210
N352        N  0.46621145  0.47129686  0.53388083    -0.46250
Co353      Co  0.45970913  0.44689280  0.90974722     0.73890
C354        C  0.02306435  0.41387381  0.90458415    -0.06580
C355        C  0.07624755  0.13129482  0.89725856    -0.06140
N356        N  0.01371598  0.02507396  0.50819764    -0.25670
N357        N  0.02488229  0.04121663  0.84892625    -0.46430
H358        H  0.15311118  0.05931579  0.92357774     0.07220
C359        C  0.41840362  0.38381443  0.98662512    -0.06550
Cl360      Cl  0.49629909  0.00701338  0.94156292    -0.49560
C361        C  0.34185750  0.43986093  0.90967014     0.42970
H362        H  0.06019717  0.05811720  0.54048336     0.07190
N363        N  0.43388169  0.36715205  0.94413213    -0.46270
C364        C  0.34115350  0.43439498  0.72588128     0.42820
N365        N  0.39492462  0.45209467  0.69873189     0.01710
C366        C  0.09005733  0.47533884  0.72734035    -0.06160
H367        H  0.05838103  0.07349747  0.78821070     0.07210
C368        C  0.05398204  0.14217871  0.68949156    -0.06510
Co369      Co  0.46377560  0.44544122  0.72725274     0.74180
N370        N  0.02078216  0.02545021  0.75779396    -0.25690
Co371      Co  0.05917197  0.03982863  0.72182520     0.74070
C372        C  0.07062811  0.15908452  0.71725845     0.42930
N373        N  0.47120434  0.05828066  0.65496026     0.01330
N374        N  0.05899484  0.09574484  0.71466418     0.01440
N375        N  0.02722542  0.41381536  0.73019773    -0.46540
H376        H  0.37364004  0.42245648  0.76329809     0.07190
N377        N  0.48413204  0.48960878  0.75975802     0.01720
N378        N  0.09686008  0.05323990  0.68598658     0.01460
C379        C  0.15151647  0.07361189  0.65956401     0.43070
N380        N  0.43453672  0.02256957  0.65746284    -0.25150
C381        C  0.43425861  0.36200065  0.69681611    -0.06070
N382        N  0.35571192  0.44520465  0.69919463    -0.46250
N383        N  0.13639904  0.06127530  0.68595291    -0.46480
C384        C  0.41517482  0.34354485  0.66993711     0.42840
N385        N  0.02167265  0.44673308  0.72908314     0.01710
N386        N  0.47133477  0.48028247  0.62616997    -0.25170
N387        N  0.40668389  0.44489594  0.72339880    -0.25660
N388        N  0.00831083  0.01597777  0.62454971     0.01350
H389        H  0.43249472  0.43516649  0.59451516     0.07240
H390        H  0.11917965  0.08486404  0.62179777     0.07270
N391        N  0.05791943  0.48298020  0.72716040    -0.25710
N392        N  0.04776870  0.10304574  0.68986448    -0.25320
N393        N  0.43199105  0.40871643  0.67007668     0.01710
C394        C  0.49327463  0.01670978  0.80108271     0.43110
C395        C  0.40319104  0.03145280  0.65751144    -0.06570
N396        N  0.08536665  0.06057083  0.66127802    -0.25320
H397        H  0.04899910  0.15725407  0.67154515     0.07260
N398        N  0.46695784  0.48294689  0.78534042    -0.46540
H399        H  0.36960255  0.00874052  0.65968014     0.07250
C400        C  0.49806914  0.49189591  0.58218597     0.42950
C401        C  0.37457851  0.43319803  0.74189779    -0.06070
Co402      Co  0.43260813  0.46530278  0.66262164     0.73820
N403        N  0.46688728  0.09173190  0.65312821    -0.46260
C404        C  0.06964990  0.42932490  0.72874150     0.43210
N405        N  0.41398094  0.37408419  0.65454311    -0.46250
Co406      Co  0.02845232  0.05972312  0.65723452     0.73890
C407        C  0.11793164  0.07344634  0.64304119    -0.06580
C408        C  0.02921939  0.04494870  0.78284868    -0.06140
N409        N  0.44354070  0.40201520  0.69498028    -0.25670
N410        N  0.07349753  0.12871114  0.73155860    -0.46430
H411        H  0.12339517  0.49910706  0.72588197     0.07220
C412        C  0.46225283  0.46264902  0.60039102    -0.06550
Cl413      Cl  0.49598896  0.00247473  0.69218452    -0.49560
C414        C  0.42495679  0.07743064  0.65469951     0.42970
H415        H  0.43719359  0.34708598  0.71566895     0.07190
N416        N  0.02489222  0.02421824  0.59872965    -0.46270
C417        C  0.09971642  0.23567236  0.70685983    -0.11900
C418        C  0.08844838  0.20324821  0.72677181     0.05110
C419        C  0.09586435  0.21382227  0.75539806    -0.07190
C420        C  0.11741520  0.25631285  0.76312323    -0.07930
C421        C  0.13311151  0.28998755  0.74329747    -0.02480
C422        C  0.12107423  0.27845527  0.71456740     0.04330
N423        N  0.12828108  0.30900637  0.69296424     0.66840
H424        H  0.09282909  0.22805323  0.68480163     0.15740
H425        H  0.12007169  0.26202713  0.78525471     0.15450
N426        N  0.08025924  0.18190425  0.77713613     0.74540
O427        O  0.09795953  0.30311191  0.67732394    -0.38910
O428        O  0.16545810  0.33784415  0.68648287    -0.38850
O429        O  0.10320373  0.18599877  0.79804938    -0.39550
O430        O  0.04170647  0.15283305  0.77748372    -0.39620
C431        C  0.06845968  0.36360878  0.74276996    -0.11900
C432        C  0.09020515  0.40331315  0.72963403     0.05110
C433        C  0.13156896  0.41780373  0.71885327    -0.07190
C434        C  0.15200293  0.39505525  0.72487240    -0.07930
C435        C  0.13245973  0.35764241  0.74147812    -0.02480
C436        C  0.08841995  0.34040696  0.74823982     0.04330
N437        N  0.06374591  0.30035318  0.76211088     0.66840
H438        H  0.03596373  0.35096754  0.74994996     0.15740
H439        H  0.18335641  0.40709632  0.71600434     0.15450
N440        N  0.15281735  0.45455433  0.70091743     0.74540
O441        O  0.05552986  0.29925013  0.78807221    -0.38910
O442        O  0.04042163  0.26833382  0.74741553    -0.38850
O443        O  0.19251839  0.47904750  0.70258111    -0.39550
O444        O  0.13318796  0.45917590  0.68071265    -0.39620
C445        C  0.23127335  0.40361065  0.75297882    -0.11900
C446        C  0.20599977  0.36141034  0.74333822     0.05110
C447        C  0.22789601  0.34430330  0.72812766    -0.07190
C448        C  0.27160141  0.36956773  0.72267404    -0.07930
C449        C  0.29552173  0.41064716  0.73282701    -0.02480
C450        C  0.27534908  0.42816008  0.74828659     0.04330
N451        N  0.29857720  0.47051030  0.75925700     0.66840
H452        H  0.21626132  0.41744026  0.76506327     0.15740
H453        H  0.28756475  0.35622370  0.71102696     0.15450
N454        N  0.20829646  0.30130320  0.71912084     0.74540
O455        O  0.27951736  0.99022330  0.76479561    -0.38910
O456        O  0.33737546  0.48735845  0.76542936    -0.38850
O457        O  0.20955210  0.29396881  0.69326346    -0.39550
O458        O  0.20269470  0.27311662  0.73676331    -0.39620
C459        C  0.08999407  0.21919314  0.88031277    -0.11900
C460        C  0.09696130  0.20951739  0.90737190     0.05110
C461        C  0.11924962  0.24241600  0.92679216    -0.07190
C462        C  0.13611387  0.28447319  0.91778918    -0.07930
C463        C  0.13374566  0.29500832  0.88944429    -0.02480
C464        C  0.10525460  0.26088349  0.87161995     0.04330
N465        N  0.08612954  0.26674493  0.84692579     0.66840
H466        H  0.06952705  0.19358708  0.86642700     0.15740
H467        H  0.15389800  0.30963872  0.93263501     0.15450
N468        N  0.12793036  0.23425783  0.95489746     0.74540
O469        O  0.07538478  0.24083144  0.82697468    -0.38910
O470        O  0.06917090  0.28913076  0.84843243    -0.38850
O471        O  0.14183245  0.20949989  0.95885672    -0.39550
O472        O  0.12891457  0.25711989  0.97498530    -0.39620
C473        C  0.16004512  0.41040412  0.89812699    -0.11900
C474        C  0.13773214  0.36567858  0.89541099     0.05110
C475        C  0.09341106  0.34496284  0.90355491    -0.07190
C476        C  0.07292048  0.36812214  0.90625392    -0.07930
C477        C  0.09452435  0.41191302  0.90320131    -0.02480
C478        C  0.13921857  0.43350795  0.90084117     0.04330
N479        N  0.16415078  0.47873487  0.89893267     0.66840
H480        H  0.19384544  0.42919349  0.89682063     0.15740
H481        H  0.03937044  0.35104985  0.91139247     0.15450
N482        N  0.06936870  0.30227765  0.91369352     0.74540
O483        O  0.19592156  0.49862011  0.91468031    -0.38910
O484        O  0.16060130  0.49740957  0.87764871    -0.38850
O485        O  0.07129226  0.29585529  0.93967355    -0.39550
O486        O  0.03631992  0.27629580  0.90070077    -0.39620
C487        C  0.23629545  0.40522360  0.87473475    -0.11900
C488        C  0.20897880  0.36482393  0.88732086     0.05110
C489        C  0.23081860  0.34739150  0.90239612    -0.07190
C490        C  0.27290590  0.37415176  0.91094606    -0.07930
C491        C  0.29713010  0.41559157  0.90110778    -0.02480
C492        C  0.27950566  0.43076109  0.88136643     0.04330
N493        N  0.30442394  0.47153167  0.86779277     0.66840
H494        H  0.22335367  0.41794888  0.85980064     0.15740
H495        H  0.28836862  0.36127253  0.92356868     0.15450
N496        N  0.21519760  0.30299656  0.90571585     0.74540
O497        O  0.29313572  0.47871689  0.84431188    -0.38910
O498        O  0.33680096  0.50108415  0.87947236    -0.38850
O499        O  0.20503292  0.27970786  0.88432208    -0.39550
O500        O  0.22131550  0.28932200  0.92862249    -0.39620
C501        C  0.17959945  0.32668264  0.83270403    -0.11900
C502        C  0.15948861  0.34524750  0.84723922     0.05110
C503        C  0.14395914  0.36636678  0.83017268    -0.07190
C504        C  0.14546742  0.36453465  0.80076310    -0.07930
C505        C  0.16075225  0.34125305  0.78635394    -0.02480
C506        C  0.18206307  0.32591664  0.80337675     0.04330
N507        N  0.20652717  0.30911890  0.79173076     0.66840
H508        H  0.19454825  0.31271568  0.84440510     0.15740
H509        H  0.13458054  0.38273607  0.78951731     0.15450
N510        N  0.12621598  0.39005694  0.84123156     0.74540
O511        O  0.24568226  0.33421485  0.78735032    -0.38910
O512        O  0.19409419  0.27063718  0.79611145    -0.38850
O513        O  0.14738962  0.42969678  0.83817533    -0.39550
O514        O  0.08628602  0.37224854  0.84318714    -0.39620
C515        C  0.26927784  0.15057692  0.66322432    -0.11900
C516        C  0.28597693  0.13812480  0.64041359     0.05110
C517        C  0.25594815  0.09852325  0.62750439    -0.07190
C518        C  0.21221809  0.08110105  0.63236188    -0.07930
C519        C  0.19701692  0.09703747  0.65283104    -0.02480
C520        C  0.22582743  0.13125673  0.66922405     0.04330
N521        N  0.21166554  0.14795220  0.69138886     0.66840
H522        H  0.28986849  0.17676018  0.67650856     0.15740
H523        H  0.18980013  0.05199738  0.62198970     0.15450
N524        N  0.26736986  0.07097695  0.61377472     0.74540
O525        O  0.23344059  0.16240332  0.71342825    -0.38910
O526        O  0.18030334  0.15290761  0.68767135    -0.38850
O527        O  0.28634462  0.05623000  0.62753415    -0.39550
O528        O  0.24784598  0.05160820  0.59188740    -0.39620
C529        C  0.35705313  0.28172997  0.64576126    -0.11900
C530        C  0.39286768  0.29811003  0.66289420     0.05110
C531        C  0.40546140  0.27050167  0.67387450    -0.07190
C532        C  0.38384192  0.22808378  0.66592206    -0.07930
C533        C  0.35139321  0.21225058  0.64546150    -0.02480
C534        C  0.33559182  0.23943555  0.63707838     0.04330
N535        N  0.30247489  0.22748779  0.61655983     0.66840
H536        H  0.34613228  0.30244388  0.63828528     0.15740
H537        H  0.39501581  0.20850598  0.67487092     0.15450
N538        N  0.44191059  0.28524693  0.69161327     0.74540
O539        O  0.30875425  0.25222090  0.59615627    -0.38950
O540        O  0.26459720  0.20002809  0.62256129    -0.38850
O541        O  0.44004585  0.26410832  0.71319048    -0.39550
O542        O  0.47759393  0.31518162  0.68333997    -0.39620
C543        C  0.40190058  0.16218865  0.63232485    -0.11900
C544        C  0.36081473  0.14726215  0.64371182     0.05110
C545        C  0.34622217  0.11420415  0.66434249    -0.07190
C546        C  0.36724580  0.09140031  0.66722647    -0.07930
C547        C  0.40582949  0.10429700  0.65326980    -0.02480
C548        C  0.42492746  0.14226424  0.63765297     0.04330
N549        N  0.46737115  0.16095303  0.62666717     0.66840
H550        H  0.41620946  0.18906208  0.61841892     0.15740
H551        H  0.35418057  0.06437830  0.68139574     0.15450
N552        N  0.31226937  0.10475748  0.68372808     0.74540
O553        O  0.47444029  0.17069419  0.60084510    -0.38910
O554        O  0.49808924  0.17713768  0.64356031    -0.38850
O555        O  0.28247835  0.06701294  0.68711528    -0.39550
O556        O  0.31788223  0.13152259  0.70229612    -0.39620
C557        C  0.20785169  0.10875072  0.50660523    -0.11900
C558        C  0.19977299  0.10438353  0.97784090     0.05110
C559        C  0.23448317  0.12325091  0.95871725    -0.07190
C560        C  0.27610696  0.14420378  0.96899480    -0.07930
C561        C  0.28518237  0.14751237  0.99812213    -0.02480
C562        C  0.24913971  0.13070985  0.51717333     0.04330
N563        N  0.25200374  0.13652042  0.54711817     0.66840
H564        H  0.18135388  0.09575350  0.52139959     0.15740
H565        H  0.30211969  0.15859535  0.95386782     0.15450
N566        N  0.22854455  0.12397539  0.92894086     0.74540
O567        O  0.26028456  0.17160735  0.55699166    -0.38910
O568        O  0.23236340  0.10438378  0.56282769    -0.38850
O569        O  0.20930910  0.14169371  0.91937313    -0.39550
O570        O  0.24913179  0.11431775  0.91215834    -0.39620
C571        C  0.38597789  0.23428806  0.97297436    -0.11900
C572        C  0.35212839  0.21804171  0.99301858     0.05110
C573        C  0.33668411  0.24562732  0.50014343    -0.07190
C574        C  0.36019612  0.28846885  0.99294819    -0.07930
C575        C  0.39739853  0.30524450  0.97689126    -0.02480
C576        C  0.40973585  0.27754526  0.96578466     0.04330
N577        N  0.44742798  0.29284355  0.94860583     0.66840
H578        H  0.39618648  0.21412954  0.96373855     0.15740
H579        H  0.34825144  0.30873533  0.49948398     0.15450
N580        N  0.29728823  0.23165885  0.51458123     0.74540
O581        O  0.48119073  0.32620369  0.95523357    -0.38910
O582        O  0.44889965  0.27001758  0.92935816    -0.38850
O583        O  0.29759613  0.25090016  0.53662470    -0.39550
O584        O  0.26364381  0.21394902  0.50034197    -0.39620
C585        C  0.33967296  0.11306023  0.97999060    -0.11900
C586        C  0.35912098  0.15128685  0.99545555     0.05110
C587        C  0.40245325  0.16737793  0.00353861    -0.07190
C588        C  0.42324801  0.14543171  0.99690935    -0.07930
C589        C  0.40292966  0.10699533  0.98272938    -0.02480
C590        C  0.36093229  0.09116688  0.97344517     0.04330
N591        N  0.33942874  0.05324236  0.95708985     0.66840
H592        H  0.30696599  0.09820164  0.97378673     0.15740
H593        H  0.45537048  0.15791296  0.00438760     0.15450
N594        N  0.42529697  0.20410493  0.02069880     0.74540
O595        O  0.30003846  0.02806189  0.46050133    -0.38910
O596        O  0.35829536  0.04784758  0.93658770    -0.38850
O597        O  0.43189984  0.19897403  0.54610316    -0.39550
O598        O  0.45026770  0.23910216  0.00893469    -0.39620
C599        C  0.35763896  0.21090660  0.55406810    -0.11900
C600        C  0.33820366  0.17280204  0.53895332     0.05110
C601        C  0.32942242  0.13580058  0.55446420    -0.07190
C602        C  0.33449614  0.13778390  0.58359495    -0.07930
C603        C  0.34271248  0.17320259  0.59935822    -0.02480
C604        C  0.36282179  0.21211069  0.58337973     0.04330
N605        N  0.39400636  0.25240289  0.59475559     0.66840
H606        H  0.37327294  0.24079748  0.54311004     0.15740
H607        H  0.33412859  0.11153233  0.59381924     0.15450
N608        N  0.31730068  0.09620594  0.54129012     0.74540
O609        O  0.39627726  0.28581281  0.58560087    -0.38910
O610        O  0.42518214  0.25576546  0.60822024    -0.38850
O611        O  0.33887291  0.07877213  0.54573233    -0.39550
O612        O  0.28118404  0.07483694  0.53026199    -0.39620
C613        C  0.33333326  0.67236300  0.00636937    -0.02120
C614        C  0.33491873  0.66747302  0.13241709    -0.02120
C615        C  0.15941614  0.84256458  0.38031496    -0.02120
C616        C  0.15810093  0.83706520  0.25317181    -0.02120
C617        C  0.42592106  0.58355851  0.47959228     0.42820
N618        N  0.43967787  0.53335391  0.47766210     0.01710
C619        C  0.13745983  0.56291606  0.44184213    -0.06160
H620        H  0.08883830  0.63340881  0.37623034     0.07210
C621        C  0.46084113  0.98098772  0.34962043    -0.06510
Co622      Co  0.03341273  0.56682822  0.47355637     0.74180
N623        N  0.06016793  0.59735227  0.41429145    -0.25690
Co624      Co  0.05681821  0.53966975  0.40868511     0.74070
C625        C  0.49153984  0.51640653  0.33220482     0.42930
N626        N  0.40435846  0.94929155  0.41498046     0.01330
N627        N  0.01542889  0.52353021  0.37444778     0.01440
N628        N  0.12295451  0.58166814  0.48390372    -0.46540
H629        H  0.49709154  0.63429410  0.47874715     0.07190
N630        N  0.05185335  0.60768524  0.43916336     0.01720
N631        N  0.05320388  0.98177936  0.40532756     0.01460
C632        C  0.06946015  0.93344990  0.40378888     0.43070
N633        N  0.39510498  0.95946061  0.43956688    -0.25150
C634        C  0.03101887  0.53055430  0.03387547    -0.06070
N635        N  0.40796699  0.54104839  0.47903008    -0.46250
N636        N  0.08578385  0.97556775  0.40436025    -0.46480
C637        C  0.49955780  0.99474300  0.05091688     0.42840
N638        N  0.08927540  0.56516664  0.46738689     0.01710
N639        N  0.43238839  0.91686374  0.46895567    -0.25170
N640        N  0.47732589  0.56822896  0.47756186    -0.25660
N641        N  0.44161696  0.90644133  0.44445327     0.01350
H642        H  0.40660285  0.88224203  0.00782884     0.07240
H643        H  0.99852104  0.88090451  0.40485531     0.07270
N644        N  0.09751952  0.55504387  0.44245855    -0.25710
N645        N  0.47850062  0.98784280  0.37517080    -0.25320
N646        N  0.47615160  0.98999809  0.00865632     0.01710
C647        C  0.07779174  0.66454670  0.41482234     0.43110
C648        C  0.35611717  0.95422259  0.43826567    -0.06570
N649        N  0.01619319  0.94628183  0.40578917    -0.25320
H650        H  0.43216428  0.95260710  0.34334475     0.07260
N651        N  0.06208529  0.64766903  0.44039744    -0.46540
H652        H  0.33892143  0.95771957  0.45566234     0.07250
C653        C  0.41973553  0.85092306  0.47014321     0.42950
C654        C  0.47191620  0.60154391  0.47897524    -0.06070
Co655      Co  0.43518634  0.97453858  0.47414757     0.73820
N656        N  0.37295521  0.93642294  0.39673153    -0.46260
C657        C  0.15468665  0.58143098  0.46911937     0.43210
N658        N  0.46621144  0.97129684  0.03388083    -0.46250
Co659      Co  0.45970912  0.94689278  0.40974723     0.73890
C660        C  0.02306436  0.91387382  0.40458416    -0.06580
C661        C  0.07624753  0.63129482  0.39725855    -0.06140
N662        N  0.01371598  0.52507395  0.00819765    -0.25670
N663        N  0.02488225  0.54121660  0.34892625    -0.46430
H664        H  0.15311119  0.55931581  0.42357772     0.07220
C665        C  0.41840357  0.88381441  0.48662514    -0.06550
Cl666      Cl  0.49629908  0.50701337  0.44156292    -0.49560
C667        C  0.34185749  0.93986091  0.40967015     0.42970
H668        H  0.06019715  0.55811718  0.04048338     0.07190
N669        N  0.43388164  0.86715202  0.44413215    -0.46270
C670        C  0.34115346  0.93439492  0.22588128     0.42820
N671        N  0.39492457  0.95209460  0.19873188     0.01710
C672        C  0.09005729  0.97533883  0.22734035    -0.06160
H673        H  0.05838097  0.57349744  0.28821069     0.07210
C674        C  0.05398198  0.64217867  0.18949156    -0.06510
Co675      Co  0.46377555  0.94544116  0.22725274     0.74180
N676        N  0.02078210  0.52545018  0.25779396    -0.25690
Co677      Co  0.05917191  0.53982860  0.22182520     0.74070
C678        C  0.07062804  0.65908449  0.21725845     0.42930
N679        N  0.47120428  0.55828060  0.15496025     0.01330
N680        N  0.05899477  0.59574481  0.21466418     0.01440
N681        N  0.02722539  0.91381535  0.23019773    -0.46540
H682        H  0.37363999  0.92245643  0.26329809     0.07190
N683        N  0.48413199  0.98960873  0.25975802     0.01720
N684        N  0.09686003  0.55323988  0.18598658     0.01460
C685        C  0.15151641  0.57361189  0.15956402     0.43070
N686        N  0.43453668  0.52256950  0.15746282    -0.25150
C687        C  0.43425855  0.86200058  0.19681611    -0.06070
N688        N  0.35571187  0.94520458  0.19919462    -0.46250
N689        N  0.13639898  0.56127529  0.18595292    -0.46480
C690        C  0.41517476  0.84354477  0.16993712     0.42840
N691        N  0.02167261  0.94673307  0.22908314     0.01710
N692        N  0.47133473  0.98028241  0.12616997    -0.25170
N693        N  0.40668384  0.94489587  0.22339879    -0.25660
N694        N  0.00831078  0.51597774  0.12454971     0.01350
H695        H  0.43249469  0.93516643  0.09451515     0.07240
H696        H  0.11917959  0.58486403  0.12179777     0.07270
N697        N  0.05791939  0.98298019  0.22716040    -0.25710
N698        N  0.04776863  0.60304571  0.18986449    -0.25320
N699        N  0.43199101  0.90871636  0.17007668     0.01710
C700        C  0.49327459  0.51670973  0.30108270     0.43110
C701        C  0.40319098  0.53145271  0.15751143    -0.06570
N702        N  0.08536659  0.56057081  0.16127802    -0.25320
H703        H  0.04899904  0.65725404  0.17154515     0.07260
N704        N  0.46695780  0.98294683  0.28534042    -0.46540
H705        H  0.36960250  0.50874043  0.15968012     0.07250
C706        C  0.49806911  0.99189587  0.08218597     0.42950
C707        C  0.37457846  0.93319797  0.24189779    -0.06070
Co708      Co  0.43260808  0.96530271  0.16262163     0.73820
N709        N  0.46688722  0.59173183  0.15312820    -0.46260
C710        C  0.06964987  0.92932489  0.22874150     0.43210
N711        N  0.41398088  0.87408411  0.15454312    -0.46250
Co712      Co  0.02845226  0.55972309  0.15723452     0.73890
C713        C  0.11793158  0.57344633  0.14304119    -0.06580
C714        C  0.02921933  0.54494866  0.28284867    -0.06140
N715        N  0.44354065  0.90201514  0.19498028    -0.25670
N716        N  0.07349746  0.62871111  0.23155860    -0.46430
H717        H  0.12339513  0.99910705  0.22588197     0.07220
C718        C  0.46225280  0.96264897  0.10039101    -0.06550
Cl719      Cl  0.49598892  0.50247468  0.19218451    -0.49560
C720        C  0.42495672  0.57743056  0.15469950     0.42970
H721        H  0.43719353  0.84708591  0.21566896     0.07190
N722        N  0.02489219  0.52421822  0.09872966    -0.46270
C723        C  0.09971635  0.73567233  0.20685983    -0.11900
C724        C  0.08844832  0.70324818  0.22677181     0.05110
C725        C  0.09586429  0.71382225  0.25539806    -0.07190
C726        C  0.11741515  0.75631283  0.26312323    -0.07930
C727        C  0.13311146  0.78998752  0.24329746    -0.02480
C728        C  0.12107418  0.77845524  0.21456740     0.04330
N729        N  0.12828102  0.80900634  0.19296424     0.66840
H730        H  0.09282903  0.72805320  0.18480163     0.15740
H731        H  0.12007164  0.76202711  0.28525471     0.15450
N732        N  0.08025918  0.68190422  0.27713613     0.74540
O733        O  0.09795948  0.80311188  0.17732394    -0.38910
O734        O  0.16545805  0.83784413  0.18648287    -0.38850
O735        O  0.10320366  0.68599875  0.29804939    -0.39550
O736        O  0.04170640  0.65283303  0.27748372    -0.39620
C737        C  0.06845964  0.86360877  0.24276995    -0.11900
C738        C  0.09020512  0.90331314  0.22963403     0.05110
C739        C  0.13156893  0.91780372  0.21885327    -0.07190
C740        C  0.15200289  0.89505523  0.22487240    -0.07930
C741        C  0.13245969  0.85764239  0.24147811    -0.02480
C742        C  0.08841991  0.84040694  0.24823982     0.04330
N743        N  0.06374586  0.80035316  0.26211087     0.66840
H744        H  0.03596369  0.85096753  0.24994995     0.15740
H745        H  0.18335638  0.90709631  0.21600434     0.15450
N746        N  0.15281733  0.95455433  0.20091744     0.74540
O747        O  0.05552983  0.79925011  0.28807220    -0.38910
O748        O  0.04042157  0.76833381  0.24741552    -0.38850
O749        O  0.19251837  0.97904750  0.20258114    -0.39550
O750        O  0.13318795  0.95917591  0.18071266    -0.39620
C751        C  0.23127332  0.90361062  0.25297882    -0.11900
C752        C  0.20599972  0.86141030  0.24333822     0.05110
C753        C  0.22789596  0.84430326  0.22812765    -0.07190
C754        C  0.27160136  0.86956768  0.22267404    -0.07930
C755        C  0.29552168  0.91064711  0.23282701    -0.02480
C756        C  0.27534905  0.92816003  0.24828658     0.04330
N757        N  0.29857717  0.97051025  0.25925700     0.66840
H758        H  0.21626129  0.91744023  0.26506326     0.15740
H759        H  0.28756469  0.85622365  0.21102695     0.15450
N760        N  0.20829640  0.80130316  0.21912083     0.74540
O761        O  0.27951735  0.49022328  0.26479559    -0.38910
O762        O  0.33737543  0.98735839  0.26542936    -0.38850
O763        O  0.20955204  0.79396877  0.19326345    -0.39550
O764        O  0.20269463  0.77311658  0.23676330    -0.39620
C765        C  0.08999404  0.71919314  0.38031276    -0.11900
C766        C  0.09696128  0.70951739  0.40737190     0.05110
C767        C  0.11924962  0.74241600  0.42679215    -0.07190
C768        C  0.13611387  0.78447319  0.41778918    -0.07930
C769        C  0.13374565  0.79500832  0.38944429    -0.02480
C770        C  0.10525458  0.76088349  0.37161996     0.04330
N771        N  0.08612950  0.76674495  0.34692580     0.66840
H772        H  0.06952701  0.69358709  0.36642701     0.15740
H773        H  0.15389801  0.80963871  0.43263500     0.15450
N774        N  0.12793038  0.73425783  0.45489744     0.74540
O775        O  0.07538475  0.74083148  0.32697468    -0.38910
O776        O  0.06917084  0.78913076  0.34843247    -0.38850
O777        O  0.14183246  0.70949987  0.45885669    -0.39550
O778        O  0.12891461  0.75711989  0.47498529    -0.39620
C779        C  0.16004507  0.91040412  0.39812694    -0.11900
C780        C  0.13773216  0.86567861  0.39541098     0.05110
C781        C  0.09341109  0.84496287  0.40355496    -0.07190
C782        C  0.07292052  0.86812218  0.40625396    -0.07930
C783        C  0.09452436  0.91191305  0.40320131    -0.02480
C784        C  0.13921858  0.93350798  0.40084112     0.04330
N785        N  0.16415077  0.97873490  0.39893257     0.66840
H786        H  0.19384573  0.92919366  0.39682050     0.15740
H787        H  0.03937042  0.85104985  0.41139256     0.15450
N788        N  0.06936876  0.80227770  0.41369360     0.74540
O789        O  0.19592162  0.99862018  0.41468017    -0.38910
O790        O  0.16060122  0.99740954  0.37764862    -0.38850
O791        O  0.07129235  0.79585538  0.43967362    -0.39550
O792        O  0.03631998  0.77629582  0.40070086    -0.39620
C793        C  0.23629545  0.90522359  0.37473473    -0.11900
C794        C  0.20897880  0.86482392  0.38732085     0.05110
C795        C  0.23081859  0.84739149  0.40239612    -0.07190
C796        C  0.27290588  0.87415175  0.41094608    -0.07930
C797        C  0.29713009  0.91559156  0.40110779    -0.02480
C798        C  0.27950566  0.93076107  0.38136642     0.04330
N799        N  0.30442396  0.97153164  0.36779275     0.66840
H800        H  0.22335370  0.91794884  0.35980062     0.15740
H801        H  0.28836859  0.86127253  0.42356870     0.15450
N802        N  0.21519759  0.80299655  0.40571584     0.74540
O803        O  0.29313576  0.97871684  0.34431184    -0.38910
O804        O  0.33680098  0.00108413  0.37947234    -0.38850
O805        O  0.20503291  0.77970786  0.38432206    -0.39550
O806        O  0.22131550  0.78932198  0.42862247    -0.39620
C807        C  0.17959942  0.82668263  0.33270403    -0.11900
C808        C  0.15948859  0.84524749  0.34723922     0.05110
C809        C  0.14395910  0.86636676  0.33017267    -0.07190
C810        C  0.14546738  0.86453462  0.30076310    -0.07930
C811        C  0.16075221  0.84125303  0.28635394    -0.02480
C812        C  0.18206303  0.82591662  0.30337674     0.04330
N813        N  0.20652712  0.80911887  0.29173075     0.66840
H814        H  0.19454823  0.81271567  0.34440510     0.15740
H815        H  0.13458049  0.88273604  0.28951730     0.15450
N816        N  0.12621593  0.89005691  0.34123155     0.74540
O817        O  0.24568222  0.83421481  0.28735031    -0.38910
O818        O  0.19409413  0.77063715  0.29611144    -0.38850
O819        O  0.14738954  0.92969675  0.33817528    -0.39550
O820        O  0.08628597  0.87224849  0.34318717    -0.39620
C821        C  0.26927780  0.65057681  0.16322434    -0.11900
C822        C  0.28597685  0.63812475  0.14041356     0.05110
C823        C  0.25594804  0.59852324  0.12750432    -0.07190
C824        C  0.21221800  0.58110108  0.13236181    -0.07930
C825        C  0.19701686  0.59703746  0.15283104    -0.02480
C826        C  0.22582740  0.63125663  0.16922409     0.04330
N827        N  0.21166555  0.64795203  0.19138897     0.66840
H828        H  0.28986847  0.67676002  0.17650861     0.15740
H829        H  0.18980000  0.55199746  0.12198960     0.15450
N830        N  0.26736971  0.57097692  0.11377462     0.74540
O831        O  0.23344060  0.66240301  0.21342837    -0.38910
O832        O  0.18030341  0.65290755  0.18767151    -0.38850
O833        O  0.28634453  0.55622999  0.12753401    -0.39550
O834        O  0.24784573  0.55160811  0.09188734    -0.39620
C835        C  0.35705305  0.78172988  0.14576128    -0.11900
C836        C  0.39286762  0.79810995  0.16289421     0.05110
C837        C  0.40546133  0.77050159  0.17387452    -0.07190
C838        C  0.38384186  0.72808370  0.16592208    -0.07930
C839        C  0.35139316  0.71225049  0.14546152    -0.02480
C840        C  0.33559174  0.73943545  0.13707842     0.04330
N841        N  0.30247470  0.72748760  0.11655996     0.66840
H842        H  0.34613218  0.80244377  0.13828530     0.15740
H843        H  0.39501575  0.70850590  0.17487094     0.15450
N844        N  0.44191050  0.78524684  0.19161331     0.74540
O845        O  0.30875413  0.75222045  0.09615622    -0.38950
O846        O  0.26459695  0.70002842  0.12256172    -0.38850
O847        O  0.44004571  0.76410825  0.21319054    -0.39550
O848        O  0.47759386  0.81518151  0.18334002    -0.39620
C849        C  0.40190052  0.66218861  0.13232493    -0.11900
C850        C  0.36081463  0.64726204  0.14371183     0.05110
C851        C  0.34622200  0.61420394  0.16434244    -0.07190
C852        C  0.36724563  0.59140012  0.16722641    -0.07930
C853        C  0.40582940  0.60429690  0.15326981    -0.02480
C854        C  0.42492742  0.64226423  0.13765307     0.04330
N855        N  0.46737120  0.66095315  0.12666741     0.66840
H856        H  0.41620944  0.68906210  0.11841906     0.15740
H857        H  0.35418036  0.56437804  0.18139562     0.15450
N858        N  0.31226912  0.60475716  0.18372798     0.74540
O859        O  0.47444055  0.67069454  0.10084538    -0.38910
O860        O  0.49808915  0.67713770  0.14356067    -0.38850
O861        O  0.28247807  0.56701260  0.18711506    -0.39550
O862        O  0.31788192  0.63152213  0.20229611    -0.39620
C863        C  0.20785171  0.60875087  0.00660523    -0.11900
C864        C  0.19977298  0.60438351  0.47784089     0.05110
C865        C  0.23448317  0.62325093  0.45871725    -0.07190
C866        C  0.27610695  0.64420378  0.46899481    -0.07930
C867        C  0.28518235  0.64751231  0.49812214    -0.02480
C868        C  0.24913974  0.63071002  0.01717331     0.04330
N869        N  0.25200380  0.63652076  0.04711814     0.66840
H870        H  0.18135392  0.59575371  0.02139961     0.15740
H871        H  0.30211968  0.65859538  0.45386784     0.15450
N872        N  0.22854456  0.62397549  0.42894087     0.74540
O873        O  0.26028391  0.67160752  0.05699153    -0.38910
O874        O  0.23236393  0.60438413  0.06282771    -0.38850
O875        O  0.20930908  0.64169380  0.41937317    -0.39550
O876        O  0.24913182  0.61431792  0.41215832    -0.39620
C877        C  0.38597786  0.73428803  0.47297437    -0.11900
C878        C  0.35212836  0.71804167  0.49301859     0.05110
C879        C  0.33668418  0.74562738  0.00014341    -0.07190
C880        C  0.36019605  0.78846879  0.49294822    -0.07930
C881        C  0.39739846  0.80524446  0.47689128    -0.02480
C882        C  0.40973580  0.77754524  0.46578467     0.04330
N883        N  0.44742793  0.79284355  0.44860585     0.66840
H884        H  0.39618645  0.71412953  0.46373855     0.15740
H885        H  0.34825153  0.80873540  0.99948394     0.15450
N886        N  0.29728830  0.73165896  0.01458121     0.74540
O887        O  0.48119068  0.82620367  0.45523361    -0.38910
O888        O  0.44889962  0.77001759  0.42935818    -0.38850
O889        O  0.29759624  0.75090031  0.03662466    -0.39550
O890        O  0.26364389  0.71394918  0.00034194    -0.39620
C891        C  0.33967295  0.61306021  0.47999059    -0.11900
C892        C  0.35912097  0.65128683  0.49545554     0.05110
C893        C  0.40245326  0.66737792  0.50353860    -0.07190
C894        C  0.42324801  0.64543170  0.49690933    -0.07930
C895        C  0.40292966  0.60699532  0.48272936    -0.02480
C896        C  0.36093229  0.59116687  0.47344516     0.04330
N897        N  0.33942874  0.55324236  0.45708984     0.66840
H898        H  0.30696599  0.59820162  0.47378672     0.15740
H899        H  0.45537048  0.65791295  0.50438758     0.15450
N900        N  0.42529698  0.70410492  0.52069879     0.74540
O901        O  0.30003847  0.52806189  0.96050136    -0.38910
O902        O  0.35829537  0.54784757  0.43658769    -0.38850
O903        O  0.43189980  0.69897404  0.04610318    -0.39550
O904        O  0.45026768  0.73910215  0.50893468    -0.39620
C905        C  0.35763888  0.71090659  0.05406812    -0.11900
C906        C  0.33820362  0.67280205  0.03895332     0.05110
C907        C  0.32942237  0.63580058  0.05446419    -0.07190
C908        C  0.33449611  0.63778388  0.08359494    -0.07930
C909        C  0.34271245  0.67320255  0.09935823    -0.02480
C910        C  0.36282173  0.71211067  0.08337975     0.04330
N911        N  0.39400630  0.75240286  0.09475562     0.66840
H912        H  0.37327285  0.74079748  0.04311007     0.15740
H913        H  0.33412853  0.61153229  0.09381922     0.15450
N914        N  0.31730059  0.59620594  0.04129009     0.74540
O915        O  0.39627719  0.78581278  0.08560092    -0.38910
O916        O  0.42518209  0.75576543  0.10822025    -0.38850
O917        O  0.33887278  0.57877207  0.04573231    -0.39550
O918        O  0.28118397  0.57483699  0.03026194    -0.39620
C919        C  0.33333325  0.67236296  0.50636938    -0.02120
C920        C  0.33491880  0.66747310  0.63241709    -0.02120
C921        C  0.15941615  0.84256458  0.88031496    -0.02120
C922        C  0.15810097  0.83706523  0.75317182    -0.02120
C923        C  0.42592105  0.58355851  0.97959230     0.42820
N924        N  0.43967787  0.53335392  0.97766210     0.01710
C925        C  0.13745983  0.56291604  0.94184215    -0.06160
H926        H  0.08883833  0.63340882  0.87623035     0.07210
C927        C  0.46084117  0.98098777  0.84962042    -0.06510
Co928      Co  0.03341274  0.56682823  0.97355637     0.74180
N929        N  0.06016795  0.59735228  0.91429146    -0.25690
Co930      Co  0.05681823  0.53966976  0.90868512     0.74070
C931        C  0.49153986  0.51640657  0.83220483     0.42930
N932        N  0.40435848  0.94929157  0.91498045     0.01330
N933        N  0.01542893  0.52353024  0.87444779     0.01440
N934        N  0.12295451  0.58166815  0.98390374    -0.46540
H935        H  0.49709154  0.63429410  0.97874717     0.07190
N936        N  0.05185337  0.60768525  0.93916337     0.01720
N937        N  0.05320388  0.98177935  0.90532756     0.01460
C938        C  0.06946014  0.93344988  0.90378888     0.43070
N939        N  0.39510500  0.95946063  0.93956687    -0.25150
C940        C  0.03101888  0.53055431  0.53387547    -0.06070
N941        N  0.40796699  0.54104839  0.97903009    -0.46250
N942        N  0.08578385  0.97556773  0.90436025    -0.46480
C943        C  0.49955781  0.99474303  0.55091688     0.42840
N944        N  0.08927541  0.56516664  0.96738690     0.01710
N945        N  0.43238842  0.91686376  0.96895566    -0.25170
N946        N  0.47732589  0.56822896  0.97756186    -0.25660
N947        N  0.44161698  0.90644135  0.94445325     0.01350
H948        H  0.40660275  0.88224200  0.50782885     0.07240
H949        H  0.99852102  0.88090450  0.90485530     0.07270
N950        N  0.09751953  0.55504386  0.94245857    -0.25710
N951        N  0.47850065  0.98784284  0.87517079    -0.25320
N952        N  0.47615160  0.98999810  0.50865633     0.01710
C953        C  0.07779176  0.66454671  0.91482235     0.43110
C954        C  0.35611719  0.95422261  0.93826566    -0.06570
N955        N  0.01619319  0.94628183  0.90578916    -0.25320
H956        H  0.43216432  0.95260716  0.84334474     0.07260
N957        N  0.06208531  0.64766904  0.94039745    -0.46540
H958        H  0.33892144  0.95771958  0.95566234     0.07250
C959        C  0.41973562  0.85092310  0.97014319     0.42950
C960        C  0.47191620  0.60154391  0.97897526    -0.06070
Co961      Co  0.43518635  0.97453859  0.97414756     0.73820
N962        N  0.37295523  0.93642297  0.89673152    -0.46260
C963        C  0.15468666  0.58143098  0.96911939     0.43210
N964        N  0.46621145  0.97129686  0.53388083    -0.46250
Co965      Co  0.45970913  0.94689280  0.90974721     0.73890
C966        C  0.02306434  0.91387381  0.90458416    -0.06580
C967        C  0.07624756  0.63129483  0.89725857    -0.06140
N968        N  0.01371599  0.52507395  0.50819764    -0.25670
N969        N  0.02488230  0.54121663  0.84892625    -0.46430
H970        H  0.15311119  0.55931578  0.92357774     0.07220
C971        C  0.41840364  0.88381444  0.98662512    -0.06550
Cl972      Cl  0.49629909  0.50701338  0.94156292    -0.49560
C973        C  0.34185750  0.93986093  0.90967015     0.42970
H974        H  0.06019717  0.55811719  0.54048336     0.07190
N975        N  0.43388170  0.86715205  0.94413213    -0.46270
C976        C  0.34115351  0.93439498  0.72588129     0.42820
N977        N  0.39492463  0.95209468  0.69873189     0.01710
C978        C  0.09005733  0.97533884  0.72734035    -0.06160
H979        H  0.05838104  0.57349748  0.78821070     0.07210
C980        C  0.05398205  0.64217871  0.68949155    -0.06510
Co981      Co  0.46377560  0.94544123  0.72725275     0.74180
N982        N  0.02078216  0.52545022  0.75779396    -0.25690
Co983      Co  0.05917197  0.53982863  0.72182520     0.74070
C984        C  0.07062812  0.65908452  0.71725845     0.42930
N985        N  0.47120433  0.55828066  0.65496026     0.01330
N986        N  0.05899484  0.59574484  0.71466418     0.01440
N987        N  0.02722541  0.91381536  0.73019773    -0.46540
H988        H  0.37364004  0.92245648  0.76329809     0.07190
N989        N  0.48413205  0.98960879  0.75975802     0.01720
N990        N  0.09686009  0.55323990  0.68598658     0.01460
C991        C  0.15151647  0.57361189  0.65956401     0.43070
N992        N  0.43453672  0.52256956  0.65746284    -0.25150
C993        C  0.43425861  0.86200065  0.69681611    -0.06070
N994        N  0.35571192  0.94520465  0.69919463    -0.46250
N995        N  0.13639904  0.56127530  0.68595291    -0.46480
C996        C  0.41517483  0.84354485  0.66993711     0.42840
N997        N  0.02167264  0.94673308  0.72908314     0.01710
N998        N  0.47133477  0.98028247  0.62616997    -0.25170
N999        N  0.40668390  0.94489594  0.72339880    -0.25660
N1000       N  0.00831083  0.51597777  0.62454971     0.01350
H1001       H  0.43249472  0.93516649  0.59451516     0.07240
H1002       H  0.11917965  0.58486405  0.62179777     0.07270
N1003       N  0.05791943  0.98298020  0.72716040    -0.25710
N1004       N  0.04776870  0.60304575  0.68986448    -0.25320
N1005       N  0.43199106  0.90871643  0.67007668     0.01710
C1006       C  0.49327462  0.51670977  0.80108271     0.43110
C1007       C  0.40319103  0.53145279  0.65751144    -0.06570
N1008       N  0.08536665  0.56057083  0.66127802    -0.25320
H1009       H  0.04899910  0.65725407  0.67154515     0.07260
N1010       N  0.46695785  0.98294689  0.78534042    -0.46540
H1011       H  0.36960255  0.50874052  0.65968014     0.07250
C1012       C  0.49806914  0.99189591  0.58218598     0.42950
C1013       C  0.37457851  0.93319803  0.74189779    -0.06070
Co1014     Co  0.43260813  0.96530278  0.66262164     0.73820
N1015       N  0.46688728  0.59173190  0.65312821    -0.46260
C1016       C  0.06964990  0.92932490  0.72874150     0.43210
N1017       N  0.41398094  0.87408419  0.65454311    -0.46250
Co1018     Co  0.02845232  0.55972312  0.65723452     0.73890
C1019       C  0.11793164  0.57344635  0.64304119    -0.06580
C1020       C  0.02921939  0.54494870  0.78284868    -0.06140
N1021       N  0.44354070  0.90201520  0.69498029    -0.25670
N1022       N  0.07349753  0.62871114  0.73155860    -0.46430
H1023       H  0.12339517  0.99910706  0.72588197     0.07220
C1024       C  0.46225283  0.96264902  0.60039102    -0.06550
Cl1025     Cl  0.49598896  0.50247473  0.69218452    -0.49560
C1026       C  0.42495679  0.57743064  0.65469951     0.42970
H1027       H  0.43719359  0.84708598  0.71566895     0.07190
N1028       N  0.02489223  0.52421824  0.59872965    -0.46270
C1029       C  0.09971642  0.73567237  0.70685983    -0.11900
C1030       C  0.08844839  0.70324821  0.72677181     0.05110
C1031       C  0.09586435  0.71382228  0.75539806    -0.07190
C1032       C  0.11741520  0.75631285  0.76312324    -0.07930
C1033       C  0.13311152  0.78998755  0.74329747    -0.02480
C1034       C  0.12107424  0.77845527  0.71456740     0.04330
N1035       N  0.12828108  0.80900637  0.69296424     0.66840
H1036       H  0.09282910  0.72805324  0.68480163     0.15740
H1037       H  0.12007170  0.76202713  0.78525471     0.15450
N1038       N  0.08025925  0.68190425  0.77713613     0.74540
O1039       O  0.09795953  0.80311191  0.67732394    -0.38910
O1040       O  0.16545811  0.83784416  0.68648287    -0.38850
O1041       O  0.10320373  0.68599877  0.79804938    -0.39550
O1042       O  0.04170647  0.65283306  0.77748372    -0.39620
C1043       C  0.06845968  0.86360878  0.74276996    -0.11900
C1044       C  0.09020515  0.90331315  0.72963404     0.05110
C1045       C  0.13156896  0.91780373  0.71885327    -0.07190
C1046       C  0.15200293  0.89505525  0.72487240    -0.07930
C1047       C  0.13245973  0.85764242  0.74147812    -0.02480
C1048       C  0.08841996  0.84040696  0.74823983     0.04330
N1049       N  0.06374591  0.80035318  0.76211088     0.66840
H1050       H  0.03596373  0.85096754  0.74994997     0.15740
H1051       H  0.18335641  0.90709633  0.71600434     0.15450
N1052       N  0.15281734  0.95455433  0.70091743     0.74540
O1053       O  0.05552986  0.79925014  0.78807221    -0.38910
O1054       O  0.04042164  0.76833382  0.74741553    -0.38850
O1055       O  0.19251839  0.97904750  0.70258111    -0.39550
O1056       O  0.13318795  0.95917590  0.68071266    -0.39620
C1057       C  0.23127336  0.90361066  0.75297882    -0.11900
C1058       C  0.20599977  0.86141034  0.74333823     0.05110
C1059       C  0.22789602  0.84430330  0.72812766    -0.07190
C1060       C  0.27160142  0.86956773  0.72267404    -0.07930
C1061       C  0.29552173  0.91064717  0.73282702    -0.02480
C1062       C  0.27534909  0.92816008  0.74828659     0.04330
N1063       N  0.29857721  0.97051030  0.75925700     0.66840
H1064       H  0.21626133  0.91744027  0.76506327     0.15740
H1065       H  0.28756475  0.85622371  0.71102696     0.15450
N1066       N  0.20829646  0.80130320  0.71912084     0.74540
O1067       O  0.27951736  0.49022330  0.76479561    -0.38910
O1068       O  0.33737546  0.98735845  0.76542936    -0.38850
O1069       O  0.20955211  0.79396881  0.69326346    -0.39550
O1070       O  0.20269470  0.77311662  0.73676331    -0.39620
C1071       C  0.08999408  0.71919314  0.88031277    -0.11900
C1072       C  0.09696130  0.70951739  0.90737191     0.05110
C1073       C  0.11924962  0.74241600  0.92679216    -0.07190
C1074       C  0.13611387  0.78447319  0.91778918    -0.07930
C1075       C  0.13374566  0.79500832  0.88944429    -0.02480
C1076       C  0.10525461  0.76088349  0.87161995     0.04330
N1077       N  0.08612955  0.76674493  0.84692578     0.66840
H1078       H  0.06952705  0.69358708  0.86642701     0.15740
H1079       H  0.15389800  0.80963872  0.93263501     0.15450
N1080       N  0.12793036  0.73425784  0.95489746     0.74540
O1081       O  0.07538479  0.74083144  0.82697468    -0.38910
O1082       O  0.06917091  0.78913076  0.84843243    -0.38850
O1083       O  0.14183245  0.70949990  0.95885672    -0.39550
O1084       O  0.12891456  0.75711990  0.97498530    -0.39620
C1085       C  0.16004512  0.91040412  0.89812700    -0.11900
C1086       C  0.13773214  0.86567858  0.89541099     0.05110
C1087       C  0.09341106  0.84496284  0.90355491    -0.07190
C1088       C  0.07292047  0.86812213  0.90625391    -0.07930
C1089       C  0.09452435  0.91191302  0.90320131    -0.02480
C1090       C  0.13921856  0.93350794  0.90084117     0.04330
N1091       N  0.16415077  0.97873487  0.89893269     0.66840
H1092       H  0.19384541  0.92919347  0.89682065     0.15740
H1093       H  0.03937044  0.85104984  0.91139246     0.15450
N1094       N  0.06936869  0.80227764  0.91369351     0.74540
O1095       O  0.19592155  0.99862009  0.91468034    -0.38910
O1096       O  0.16060131  0.99740957  0.87764873    -0.38850
O1097       O  0.07129224  0.79585527  0.93967353    -0.39550
O1098       O  0.03631991  0.77629580  0.90070075    -0.39620
C1099       C  0.23629545  0.90522360  0.87473476    -0.11900
C1100       C  0.20897880  0.86482393  0.88732087     0.05110
C1101       C  0.23081860  0.84739150  0.90239612    -0.07190
C1102       C  0.27290590  0.87415176  0.91094607    -0.07930
C1103       C  0.29713010  0.91559157  0.90110778    -0.02480
C1104       C  0.27950566  0.93076110  0.88136643     0.04330
N1105       N  0.30442394  0.97153167  0.86779278     0.66840
H1106       H  0.22335366  0.91794889  0.85980064     0.15740
H1107       H  0.28836863  0.86127253  0.92356868     0.15450
N1108       N  0.21519760  0.80299656  0.90571585     0.74540
O1109       O  0.29313571  0.97871690  0.84431189    -0.38910
O1110       O  0.33680096  0.00108416  0.87947236    -0.38850
O1111       O  0.20503293  0.77970786  0.88432208    -0.39550
O1112       O  0.22131550  0.78932200  0.92862249    -0.39620
C1113       C  0.17959946  0.82668264  0.83270404    -0.11900
C1114       C  0.15948862  0.84524750  0.84723922     0.05110
C1115       C  0.14395914  0.86636678  0.83017268    -0.07190
C1116       C  0.14546742  0.86453465  0.80076311    -0.07930
C1117       C  0.16075225  0.84125305  0.78635394    -0.02480
C1118       C  0.18206307  0.82591664  0.80337675     0.04330
N1119       N  0.20652717  0.80911890  0.79173076     0.66840
H1120       H  0.19454826  0.81271568  0.84440510     0.15740
H1121       H  0.13458054  0.88273607  0.78951731     0.15450
N1122       N  0.12621599  0.89005694  0.84123156     0.74540
O1123       O  0.24568226  0.83421485  0.78735032    -0.38910
O1124       O  0.19409419  0.77063719  0.79611145    -0.38850
O1125       O  0.14738964  0.92969679  0.83817534    -0.39550
O1126       O  0.08628602  0.87224856  0.84318713    -0.39620
C1127       C  0.26927784  0.65057692  0.66322432    -0.11900
C1128       C  0.28597693  0.63812481  0.64041359     0.05110
C1129       C  0.25594815  0.59852325  0.62750439    -0.07190
C1130       C  0.21221810  0.58110105  0.63236188    -0.07930
C1131       C  0.19701692  0.59703748  0.65283105    -0.02480
C1132       C  0.22582743  0.63125674  0.66922405     0.04330
N1133       N  0.21166554  0.64795220  0.69138886     0.66840
H1134       H  0.28986849  0.67676019  0.67650856     0.15740
H1135       H  0.18980013  0.55199738  0.62198970     0.15450
N1136       N  0.26736987  0.57097695  0.61377473     0.74540
O1137       O  0.23344058  0.66240333  0.71342824    -0.38910
O1138       O  0.18030334  0.65290761  0.68767135    -0.38850
O1139       O  0.28634462  0.55623000  0.62753416    -0.39550
O1140       O  0.24784599  0.55160820  0.59188740    -0.39620
C1141       C  0.35705313  0.78172998  0.64576126    -0.11900
C1142       C  0.39286769  0.79811003  0.66289420     0.05110
C1143       C  0.40546140  0.77050168  0.67387450    -0.07190
C1144       C  0.38384192  0.72808379  0.66592206    -0.07930
C1145       C  0.35139322  0.71225058  0.64546150    -0.02480
C1146       C  0.33559182  0.73943556  0.63707838     0.04330
N1147       N  0.30247489  0.72748779  0.61655983     0.66840
H1148       H  0.34613228  0.80244389  0.63828528     0.15740
H1149       H  0.39501581  0.70850598  0.67487092     0.15450
N1150       N  0.44191060  0.78524694  0.69161326     0.74540
O1151       O  0.30875425  0.75222090  0.59615627    -0.38950
O1152       O  0.26459721  0.70002809  0.62256129    -0.38850
O1153       O  0.44004586  0.76410832  0.71319048    -0.39550
O1154       O  0.47759394  0.81518162  0.68333996    -0.39620
C1155       C  0.40190058  0.66218865  0.63232485    -0.11900
C1156       C  0.36081473  0.64726215  0.64371182     0.05110
C1157       C  0.34622217  0.61420415  0.66434250    -0.07190
C1158       C  0.36724580  0.59140031  0.66722648    -0.07930
C1159       C  0.40582949  0.60429700  0.65326980    -0.02480
C1160       C  0.42492746  0.64226424  0.63765297     0.04330
N1161       N  0.46737114  0.66095302  0.62666717     0.66840
H1162       H  0.41620945  0.68906207  0.61841892     0.15740
H1163       H  0.35418057  0.56437830  0.68139574     0.15450
N1164       N  0.31226938  0.60475749  0.68372809     0.74540
O1165       O  0.47444028  0.67069418  0.60084510    -0.38910
O1166       O  0.49808924  0.67713768  0.64356031    -0.38850
O1167       O  0.28247835  0.56701295  0.68711529    -0.39550
O1168       O  0.31788224  0.63152260  0.70229612    -0.39620
C1169       C  0.20785169  0.60875071  0.50660523    -0.11900
C1170       C  0.19977299  0.60438354  0.97784090     0.05110
C1171       C  0.23448317  0.62325091  0.95871725    -0.07190
C1172       C  0.27610697  0.64420379  0.96899480    -0.07930
C1173       C  0.28518237  0.64751239  0.99812213    -0.02480
C1174       C  0.24913971  0.63070984  0.51717333     0.04330
N1175       N  0.25200374  0.63652040  0.54711817     0.66840
H1176       H  0.18135388  0.59575349  0.52139959     0.15740
H1177       H  0.30211969  0.65859535  0.95386782     0.15450
N1178       N  0.22854455  0.62397537  0.92894086     0.74540
O1179       O  0.26028457  0.67160733  0.55699167    -0.38910
O1180       O  0.23236338  0.60438376  0.56282769    -0.38850
O1181       O  0.20930911  0.64169369  0.91937312    -0.39550
O1182       O  0.24913178  0.61431771  0.91215835    -0.39620
C1183       C  0.38597791  0.73428806  0.97297436    -0.11900
C1184       C  0.35212840  0.71804172  0.99301858     0.05110
C1185       C  0.33668411  0.74562731  0.50014344    -0.07190
C1186       C  0.36019613  0.78846886  0.99294819    -0.07930
C1187       C  0.39739854  0.80524451  0.97689126    -0.02480
C1188       C  0.40973587  0.77754527  0.96578466     0.04330
N1189       N  0.44742799  0.79284355  0.94860583     0.66840
H1190       H  0.39618649  0.71412954  0.96373855     0.15740
H1191       H  0.34825143  0.80873532  0.49948398     0.15450
N1192       N  0.29728822  0.73165884  0.51458123     0.74540
O1193       O  0.48119074  0.82620369  0.95523357    -0.38910
O1194       O  0.44889966  0.77001758  0.92935816    -0.38850
O1195       O  0.29759612  0.75090015  0.53662469    -0.39550
O1196       O  0.26364380  0.71394900  0.50034197    -0.39620
C1197       C  0.33967295  0.61306023  0.97999060    -0.11900
C1198       C  0.35912098  0.65128685  0.99545555     0.05110
C1199       C  0.40245325  0.66737794  0.00353862    -0.07190
C1200       C  0.42324800  0.64543171  0.99690935    -0.07930
C1201       C  0.40292965  0.60699533  0.98272938    -0.02480
C1202       C  0.36093229  0.59116688  0.97344518     0.04330
N1203       N  0.33942874  0.55324236  0.95708986     0.66840
H1204       H  0.30696599  0.59820164  0.97378673     0.15740
H1205       H  0.45537048  0.65791295  0.00438761     0.15450
N1206       N  0.42529697  0.70410494  0.02069880     0.74540
O1207       O  0.30003847  0.52806189  0.46050133    -0.38910
O1208       O  0.35829535  0.54784758  0.93658771    -0.38850
O1209       O  0.43189984  0.69897403  0.54610316    -0.39550
O1210       O  0.45026771  0.73910215  0.00893469    -0.39620
C1211       C  0.35763896  0.71090660  0.55406810    -0.11900
C1212       C  0.33820366  0.67280204  0.53895332     0.05110
C1213       C  0.32942242  0.63580058  0.55446420    -0.07190
C1214       C  0.33449614  0.63778390  0.58359495    -0.07930
C1215       C  0.34271248  0.67320259  0.59935822    -0.02480
C1216       C  0.36282178  0.71211069  0.58337973     0.04330
N1217       N  0.39400636  0.75240289  0.59475559     0.66840
H1218       H  0.37327294  0.74079748  0.54311004     0.15740
H1219       H  0.33412859  0.61153233  0.59381924     0.15450
N1220       N  0.31730068  0.59620594  0.54129012     0.74540
O1221       O  0.39627726  0.78581281  0.58560087    -0.38910
O1222       O  0.42518214  0.75576546  0.60822024    -0.38850
O1223       O  0.33887292  0.57877213  0.54573233    -0.39550
O1224       O  0.28118404  0.57483694  0.53026199    -0.39620
C1225       C  0.83333326  0.17236301  0.00636937    -0.02120
C1226       C  0.83491873  0.16747304  0.13241709    -0.02120
C1227       C  0.65941614  0.34256458  0.38031496    -0.02120
C1228       C  0.65810093  0.33706519  0.25317182    -0.02120
C1229       C  0.92592105  0.08355850  0.47959228     0.42820
N1230       N  0.93967787  0.03335391  0.47766210     0.01710
C1231       C  0.63745983  0.06291607  0.44184213    -0.06160
H1232       H  0.58883829  0.13340880  0.37623034     0.07210
C1233       C  0.96084114  0.48098773  0.34962043    -0.06510
Co1234     Co  0.53341273  0.06682822  0.47355637     0.74180
N1235       N  0.56016792  0.09735227  0.41429145    -0.25690
Co1236     Co  0.55681821  0.03966975  0.40868512     0.74070
C1237       C  0.99153983  0.01640654  0.33220483     0.42930
N1238       N  0.90435846  0.44929156  0.41498046     0.01330
N1239       N  0.51542889  0.02353021  0.37444779     0.01440
N1240       N  0.62295450  0.08166815  0.48390373    -0.46540
H1241       H  0.99709153  0.13429409  0.47874715     0.07190
N1242       N  0.55185334  0.10768524  0.43916336     0.01720
N1243       N  0.55320388  0.48177935  0.40532756     0.01460
C1244       C  0.56946014  0.43344988  0.40378888     0.43070
N1245       N  0.89510498  0.45946062  0.43956687    -0.25150
C1246       C  0.53101887  0.03055429  0.03387547    -0.06070
N1247       N  0.90796698  0.04104838  0.47903008    -0.46250
N1248       N  0.58578385  0.47556773  0.40436025    -0.46480
C1249       C  0.99955780  0.49474301  0.05091688     0.42840
N1250       N  0.58927540  0.06516664  0.46738689     0.01710
N1251       N  0.93238839  0.41686375  0.46895567    -0.25170
N1252       N  0.97732588  0.06822895  0.47756186    -0.25660
N1253       N  0.94161696  0.40644134  0.44445326     0.01350
H1254       H  0.90660284  0.38224204  0.00782884     0.07240
H1255       H  0.49852102  0.38090450  0.40485531     0.07270
N1256       N  0.59751952  0.05504387  0.44245856    -0.25710
N1257       N  0.97850062  0.48784281  0.37517079    -0.25320
N1258       N  0.97615160  0.48999810  0.00865632     0.01710
C1259       C  0.57779173  0.16454669  0.41482234     0.43110
C1260       C  0.85611717  0.45422260  0.43826567    -0.06570
N1261       N  0.51619319  0.44628183  0.40578917    -0.25320
H1262       H  0.93216428  0.45260712  0.34334475     0.07260
N1263       N  0.56208528  0.14766903  0.44039744    -0.46540
H1264       H  0.83892143  0.45771957  0.45566234     0.07250
C1265       C  0.91973553  0.35092307  0.47014320     0.42950
C1266       C  0.97191619  0.10154390  0.47897524    -0.06070
Co1267     Co  0.93518635  0.47453858  0.47414756     0.73820
N1268       N  0.87295521  0.43642295  0.39673153    -0.46260
C1269       C  0.65468665  0.08143099  0.46911937     0.43210
N1270       N  0.96621144  0.47129685  0.03388083    -0.46250
Co1271     Co  0.95970912  0.44689279  0.40974722     0.73890
C1272       C  0.52306434  0.41387380  0.40458416    -0.06580
C1273       C  0.57624752  0.13129481  0.39725855    -0.06140
N1274       N  0.51371598  0.02507395  0.00819765    -0.25670
N1275       N  0.52488225  0.04121659  0.34892625    -0.46430
H1276       H  0.65311119  0.05931582  0.42357772     0.07220
C1277       C  0.91840358  0.38381442  0.48662513    -0.06550
Cl1278     Cl  0.99629908  0.00701337  0.44156292    -0.49560
C1279       C  0.84185749  0.43986092  0.40967015     0.42970
H1280       H  0.56019715  0.05811717  0.04048338     0.07190
N1281       N  0.93388165  0.36715203  0.44413214    -0.46270
C1282       C  0.84115346  0.43439492  0.22588128     0.42820
N1283       N  0.89492457  0.45209461  0.19873188     0.01710
C1284       C  0.59005730  0.47533881  0.22734035    -0.06160
H1285       H  0.55838097  0.07349743  0.28821070     0.07210
C1286       C  0.55398198  0.14217866  0.18949156    -0.06510
Co1287     Co  0.96377555  0.44544118  0.22725274     0.74180
N1288       N  0.52078210  0.02545017  0.25779396    -0.25690
Co1289     Co  0.55917191  0.03982859  0.22182520     0.74070
C1290       C  0.57062805  0.15908448  0.21725845     0.42930
N1291       N  0.97120428  0.05828061  0.15496026     0.01330
N1292       N  0.55899477  0.09574480  0.21466418     0.01440
N1293       N  0.52722538  0.41381533  0.23019773    -0.46540
H1294       H  0.87364000  0.42245643  0.26329809     0.07190
N1295       N  0.98413199  0.48960874  0.25975802     0.01720
N1296       N  0.59686003  0.05323987  0.18598659     0.01460
C1297       C  0.65151641  0.07361189  0.15956402     0.43070
N1298       N  0.93453667  0.02256951  0.15746283    -0.25150
C1299       C  0.93425855  0.36200060  0.19681611    -0.06070
N1300       N  0.85571187  0.44520459  0.19919462    -0.46250
N1301       N  0.63639898  0.06127528  0.18595292    -0.46480
C1302       C  0.91517477  0.34354479  0.16993711     0.42840
N1303       N  0.52167261  0.44673305  0.22908313     0.01710
N1304       N  0.97133473  0.48028243  0.12616997    -0.25170
N1305       N  0.90668384  0.44489588  0.22339879    -0.25660
N1306       N  0.50831078  0.01597773  0.12454971     0.01350
H1307       H  0.93249469  0.43516644  0.09451515     0.07240
H1308       H  0.61917958  0.08486403  0.12179778     0.07270
N1309       N  0.55791939  0.48298017  0.22716040    -0.25710
N1310       N  0.54776863  0.10304570  0.18986449    -0.25320
N1311       N  0.93199101  0.40871637  0.17007668     0.01710
C1312       C  0.99327458  0.01670974  0.30108271     0.43110
C1313       C  0.90319098  0.03145273  0.15751143    -0.06570
N1314       N  0.58536659  0.06057080  0.16127802    -0.25320
H1315       H  0.54899904  0.15725403  0.17154515     0.07260
N1316       N  0.96695780  0.48294684  0.28534042    -0.46540
H1317       H  0.86960249  0.00874044  0.15968013     0.07250
C1318       C  0.99806911  0.49189588  0.08218597     0.42950
C1319       C  0.87457846  0.43319798  0.24189778    -0.06070
Co1320     Co  0.93260808  0.46530272  0.16262163     0.73820
N1321       N  0.96688721  0.09173184  0.15312820    -0.46260
C1322       C  0.56964987  0.42932487  0.22874150     0.43210
N1323       N  0.91398088  0.37408413  0.15454311    -0.46250
Co1324     Co  0.52845226  0.05972308  0.15723452     0.73890
C1325       C  0.61793158  0.07344633  0.14304119    -0.06580
C1326       C  0.52921933  0.04494865  0.28284868    -0.06140
N1327       N  0.94354065  0.40201515  0.19498028    -0.25670
N1328       N  0.57349746  0.12871110  0.23155860    -0.46430
H1329       H  0.62339513  0.49910703  0.22588197     0.07220
C1330       C  0.96225280  0.46264898  0.10039101    -0.06550
Cl1331     Cl  0.99598892  0.00247469  0.19218452    -0.49560
C1332       C  0.92495672  0.07743057  0.15469950     0.42970
H1333       H  0.93719353  0.34708593  0.21566896     0.07190
N1334       N  0.52489218  0.02421821  0.09872966    -0.46270
C1335       C  0.59971636  0.23567233  0.20685983    -0.11900
C1336       C  0.58844832  0.20324817  0.22677181     0.05110
C1337       C  0.59586429  0.21382224  0.25539806    -0.07190
C1338       C  0.61741515  0.25631282  0.26312324    -0.07930
C1339       C  0.63311147  0.28998751  0.24329747    -0.02480
C1340       C  0.62107418  0.27845523  0.21456740     0.04330
N1341       N  0.62828103  0.30900633  0.19296424     0.66840
H1342       H  0.59282903  0.22805319  0.18480164     0.15740
H1343       H  0.62007165  0.26202710  0.28525471     0.15450
N1344       N  0.58025918  0.18190421  0.27713613     0.74540
O1345       O  0.59795948  0.30311188  0.17732395    -0.38910
O1346       O  0.66545805  0.33784411  0.18648287    -0.38850
O1347       O  0.60320366  0.18599874  0.29804939    -0.39550
O1348       O  0.54170640  0.15283302  0.27748372    -0.39620
C1349       C  0.56845964  0.36360876  0.24276996    -0.11900
C1350       C  0.59020512  0.40331312  0.22963404     0.05110
C1351       C  0.63156892  0.41780370  0.21885327    -0.07190
C1352       C  0.65200289  0.39505521  0.22487240    -0.07930
C1353       C  0.63245969  0.35764238  0.24147812    -0.02480
C1354       C  0.58841992  0.34040693  0.24823983     0.04330
N1355       N  0.56374587  0.30035316  0.26211088     0.66840
H1356       H  0.53596370  0.35096752  0.24994997     0.15740
H1357       H  0.68335637  0.40709629  0.21600434     0.15450
N1358       N  0.65281732  0.45455430  0.20091743     0.74540
O1359       O  0.55552983  0.29925012  0.28807222    -0.38910
O1360       O  0.54042159  0.26833380  0.24741554    -0.38850
O1361       O  0.69251836  0.47904747  0.20258112    -0.39550
O1362       O  0.63318793  0.45917588  0.18071266    -0.39620
C1363       C  0.73127332  0.40361061  0.25297882    -0.11900
C1364       C  0.70599972  0.36141029  0.24333822     0.05110
C1365       C  0.72789597  0.34430325  0.22812766    -0.07190
C1366       C  0.77160137  0.36956768  0.22267404    -0.07930
C1367       C  0.79552168  0.41064711  0.23282701    -0.02480
C1368       C  0.77534904  0.42816003  0.24828658     0.04330
N1369       N  0.79857717  0.47051025  0.25925699     0.66840
H1370       H  0.71626129  0.41744023  0.26506326     0.15740
H1371       H  0.78756470  0.35622365  0.21102696     0.15450
N1372       N  0.70829640  0.30130315  0.21912083     0.74540
O1373       O  0.77951733  0.99022327  0.26479560    -0.38910
O1374       O  0.83737542  0.48735840  0.26542935    -0.38850
O1375       O  0.70955205  0.29396876  0.19326346    -0.39550
O1376       O  0.70269464  0.27311657  0.23676331    -0.39620
C1377       C  0.58999405  0.21919314  0.38031276    -0.11900
C1378       C  0.59696127  0.20951738  0.40737190     0.05110
C1379       C  0.61924961  0.24241599  0.42679215    -0.07190
C1380       C  0.63611386  0.28447318  0.41778918    -0.07930
C1381       C  0.63374565  0.29500831  0.38944428    -0.02480
C1382       C  0.60525459  0.26088349  0.37161995     0.04330
N1383       N  0.58612952  0.26674494  0.34692579     0.66840
H1384       H  0.56952702  0.19358708  0.36642700     0.15740
H1385       H  0.65389799  0.30963871  0.43263500     0.15450
N1386       N  0.62793034  0.23425782  0.45489745     0.74540
O1387       O  0.57538475  0.24083145  0.32697468    -0.38910
O1388       O  0.56917090  0.28913079  0.34843244    -0.38850
O1389       O  0.64183243  0.20949987  0.45885671    -0.39550
O1390       O  0.62891456  0.25711988  0.47498529    -0.39620
C1391       C  0.66004509  0.41040410  0.39812700    -0.11900
C1392       C  0.63773213  0.36567858  0.39541099     0.05110
C1393       C  0.59341105  0.34496284  0.40355491    -0.07190
C1394       C  0.57292047  0.36812213  0.40625391    -0.07930
C1395       C  0.59452434  0.41191302  0.40320131    -0.02480
C1396       C  0.63921856  0.43350794  0.40084118     0.04330
N1397       N  0.66415077  0.47873487  0.39893269     0.66840
H1398       H  0.69384552  0.42919352  0.39682064     0.15740
H1399       H  0.53937041  0.35104983  0.41139247     0.15450
N1400       N  0.56936869  0.30227764  0.41369352     0.74540
O1401       O  0.69592154  0.49862009  0.41468035    -0.38910
O1402       O  0.66060132  0.49740958  0.37764873    -0.38850
O1403       O  0.57129225  0.29585528  0.43967354    -0.39550
O1404       O  0.53631990  0.27629580  0.40070077    -0.39620
C1405       C  0.73629544  0.40522360  0.37473476    -0.11900
C1406       C  0.70897880  0.36482392  0.38732086     0.05110
C1407       C  0.73081859  0.34739150  0.40239612    -0.07190
C1408       C  0.77290589  0.37415176  0.41094607    -0.07930
C1409       C  0.79713009  0.41559157  0.40110779    -0.02480
C1410       C  0.77950565  0.43076109  0.38136644     0.04330
N1411       N  0.80442394  0.47153167  0.36779278     0.66840
H1412       H  0.72335366  0.41794888  0.35980065     0.15740
H1413       H  0.78836861  0.36127252  0.42356868     0.15450
N1414       N  0.71519758  0.30299655  0.40571585     0.74540
O1415       O  0.79313571  0.47871689  0.34431189    -0.38910
O1416       O  0.83680096  0.50108415  0.37947237    -0.38850
O1417       O  0.70503292  0.27970786  0.38432208    -0.39550
O1418       O  0.72131549  0.28932199  0.42862248    -0.39620
C1419       C  0.67959944  0.32668263  0.33270403    -0.11900
C1420       C  0.65948861  0.34524750  0.34723922     0.05110
C1421       C  0.64395914  0.36636678  0.33017268    -0.07190
C1422       C  0.64546740  0.36453463  0.30076310    -0.07930
C1423       C  0.66075222  0.34125302  0.28635394    -0.02480
C1424       C  0.68206303  0.32591661  0.30337675     0.04330
N1425       N  0.70652713  0.30911886  0.29173075     0.66840
H1426       H  0.69454824  0.31271566  0.34440510     0.15740
H1427       H  0.63458052  0.38273605  0.28951731     0.15450
N1428       N  0.62621601  0.39005696  0.34123156     0.74540
O1429       O  0.74568222  0.33421480  0.28735031    -0.38910
O1430       O  0.69409413  0.27063714  0.29611145    -0.38850
O1431       O  0.64738969  0.42969681  0.33817534    -0.39550
O1432       O  0.58628605  0.37224860  0.34318713    -0.39620
C1433       C  0.76927780  0.15057683  0.16322433    -0.11900
C1434       C  0.78597685  0.13812476  0.14041356     0.05110
C1435       C  0.75594805  0.09852325  0.12750432    -0.07190
C1436       C  0.71221800  0.08110108  0.13236182    -0.07930
C1437       C  0.69701686  0.09703746  0.15283104    -0.02480
C1438       C  0.72582739  0.13125665  0.16922408     0.04330
N1439       N  0.71166554  0.14795205  0.19138895     0.66840
H1440       H  0.78986846  0.17676004  0.17650860     0.15740
H1441       H  0.68980001  0.05199745  0.12198961     0.15450
N1442       N  0.76736972  0.07097693  0.11377463     0.74540
O1443       O  0.73344059  0.16240304  0.21342836    -0.38910
O1444       O  0.68030339  0.15290755  0.18767150    -0.38850
O1445       O  0.78634453  0.05623000  0.12753402    -0.39550
O1446       O  0.74784575  0.05160812  0.09188734    -0.39620
C1447       C  0.85705305  0.28172990  0.14576128    -0.11900
C1448       C  0.89286762  0.29810996  0.16289420     0.05110
C1449       C  0.90546133  0.27050161  0.17387451    -0.07190
C1450       C  0.88384187  0.22808372  0.16592207    -0.07930
C1451       C  0.85139316  0.21225051  0.14546151    -0.02480
C1452       C  0.83559174  0.23943547  0.13707842     0.04330
N1453       N  0.80247471  0.22748763  0.11655995     0.66840
H1454       H  0.84613219  0.30244379  0.13828529     0.15740
H1455       H  0.89501575  0.20850591  0.17487093     0.15450
N1456       N  0.94191051  0.28524686  0.19161330     0.74540
O1457       O  0.80875414  0.25222049  0.09615621    -0.38950
O1458       O  0.76459696  0.20002842  0.12256169    -0.38850
O1459       O  0.94004573  0.26410827  0.21319053    -0.39550
O1460       O  0.97759386  0.31518153  0.18334000    -0.39620
C1461       C  0.90190052  0.16218862  0.13232492    -0.11900
C1462       C  0.86081463  0.14726206  0.14371183     0.05110
C1463       C  0.84622200  0.11420397  0.16434244    -0.07190
C1464       C  0.86724564  0.09140014  0.16722641    -0.07930
C1465       C  0.90582940  0.10429692  0.15326981    -0.02480
C1466       C  0.92492742  0.14226423  0.13765306     0.04330
N1467       N  0.96737118  0.16095314  0.12666738     0.66840
H1468       H  0.91620944  0.18906210  0.11841904     0.15740
H1469       H  0.85418037  0.06437807  0.18139563     0.15450
N1470       N  0.81226913  0.10475720  0.18372799     0.74540
O1471       O  0.97444051  0.17069450  0.10084535    -0.38910
O1472       O  0.99808915  0.17713771  0.14356063    -0.38850
O1473       O  0.78247808  0.06701265  0.18711508    -0.39550
O1474       O  0.81788194  0.13152218  0.20229611    -0.39620
C1475       C  0.70785171  0.10875085  0.00660523    -0.11900
C1476       C  0.69977298  0.10438352  0.47784089     0.05110
C1477       C  0.73448316  0.12325094  0.45871725    -0.07190
C1478       C  0.77610695  0.14420379  0.46899481    -0.07930
C1479       C  0.78518235  0.14751232  0.49812214    -0.02480
C1480       C  0.74913974  0.13071001  0.01717331     0.04330
N1481       N  0.75200380  0.13652074  0.04711814     0.66840
H1482       H  0.68135392  0.09575370  0.02139960     0.15740
H1483       H  0.80211968  0.15859539  0.45386783     0.15450
N1484       N  0.72854455  0.12397549  0.42894087     0.74540
O1485       O  0.76028395  0.17160751  0.05699154    -0.38910
O1486       O  0.73236390  0.10438412  0.06282771    -0.38850
O1487       O  0.70930908  0.14169379  0.41937317    -0.39550
O1488       O  0.74913181  0.11431791  0.41215832    -0.39620
C1489       C  0.88597786  0.23428804  0.47297437    -0.11900
C1490       C  0.85212836  0.21804168  0.49301858     0.05110
C1491       C  0.83668417  0.24562738  0.00014341    -0.07190
C1492       C  0.86019606  0.28846880  0.49294821    -0.07930
C1493       C  0.89739847  0.30524447  0.47689127    -0.02480
C1494       C  0.90973581  0.27754525  0.46578467     0.04330
N1495       N  0.94742793  0.29284355  0.44860584     0.66840
H1496       H  0.89618645  0.21412953  0.46373855     0.15740
H1497       H  0.84825152  0.30873540  0.99948394     0.15450
N1498       N  0.79728830  0.23165896  0.01458120     0.74540
O1499       O  0.98119068  0.32620368  0.45523359    -0.38910
O1500       O  0.94889961  0.27001759  0.42935817    -0.38850
O1501       O  0.79759623  0.25090031  0.03662466    -0.39550
O1502       O  0.76364389  0.21394917  0.00034194    -0.39620
C1503       C  0.83967295  0.11306021  0.47999059    -0.11900
C1504       C  0.85912097  0.15128683  0.49545554     0.05110
C1505       C  0.90245325  0.16737792  0.50353860    -0.07190
C1506       C  0.92324800  0.14543170  0.49690933    -0.07930
C1507       C  0.90292965  0.10699532  0.48272936    -0.02480
C1508       C  0.86093228  0.09116686  0.47344516     0.04330
N1509       N  0.83942873  0.05324235  0.45708984     0.66840
H1510       H  0.80696598  0.09820162  0.47378672     0.15740
H1511       H  0.95537048  0.15791294  0.50438758     0.15450
N1512       N  0.92529698  0.20410492  0.52069878     0.74540
O1513       O  0.80003847  0.02806190  0.96050136    -0.38910
O1514       O  0.85829535  0.04784756  0.43658769    -0.38850
O1515       O  0.93189980  0.19897405  0.04610318    -0.39550
O1516       O  0.95026768  0.23910215  0.50893468    -0.39620
C1517       C  0.85763889  0.21090660  0.05406811    -0.11900
C1518       C  0.83820362  0.17280206  0.03895332     0.05110
C1519       C  0.82942238  0.13580059  0.05446419    -0.07190
C1520       C  0.83449611  0.13778389  0.08359494    -0.07930
C1521       C  0.84271245  0.17320256  0.09935822    -0.02480
C1522       C  0.86282173  0.21211068  0.08337974     0.04330
N1523       N  0.89400630  0.25240287  0.09475561     0.66840
H1524       H  0.87327286  0.24079749  0.04311007     0.15740
H1525       H  0.83412854  0.11153230  0.09381922     0.15450
N1526       N  0.81730060  0.09620594  0.04129010     0.74540
O1527       O  0.89627719  0.28581279  0.08560091    -0.38910
O1528       O  0.92518209  0.25576544  0.10822025    -0.38850
O1529       O  0.83887279  0.07877208  0.04573232    -0.39550
O1530       O  0.78118398  0.07483699  0.03026194    -0.39620
C1531       C  0.83333325  0.17236297  0.50636937    -0.02120
C1532       C  0.83491880  0.16747309  0.63241709    -0.02120
C1533       C  0.65941615  0.34256458  0.88031496    -0.02120
C1534       C  0.65810097  0.33706524  0.75317182    -0.02120
C1535       C  0.92592106  0.08355852  0.97959230     0.42820
N1536       N  0.93967787  0.03335392  0.97766210     0.01710
C1537       C  0.63745983  0.06291604  0.94184215    -0.06160
H1538       H  0.58883833  0.13340882  0.87623035     0.07210
C1539       C  0.96084118  0.48098777  0.84962042    -0.06510
Co1540     Co  0.53341274  0.06682822  0.97355638     0.74180
N1541       N  0.56016795  0.09735228  0.91429146    -0.25690
Co1542     Co  0.55681823  0.03966976  0.90868512     0.74070
C1543       C  0.99153987  0.01640656  0.83220483     0.42930
N1544       N  0.90435848  0.44929158  0.91498045     0.01330
N1545       N  0.51542892  0.02353024  0.87444779     0.01440
N1546       N  0.62295451  0.08166814  0.98390374    -0.46540
H1547       H  0.99709155  0.13429410  0.97874717     0.07190
N1548       N  0.55185337  0.10768525  0.93916337     0.01720
N1549       N  0.55320389  0.48177936  0.90532756     0.01460
C1550       C  0.56946014  0.43344988  0.90378888     0.43070
N1551       N  0.89510500  0.45946064  0.93956686    -0.25150
C1552       C  0.53101888  0.03055431  0.53387547    -0.06070
N1553       N  0.90796699  0.04104840  0.97903009    -0.46250
N1554       N  0.58578385  0.47556773  0.90436025    -0.46480
C1555       C  0.99955782  0.49474303  0.55091687     0.42840
N1556       N  0.58927541  0.06516663  0.96738690     0.01710
N1557       N  0.93238842  0.41686376  0.96895566    -0.25170
N1558       N  0.97732589  0.06822896  0.97756186    -0.25660
N1559       N  0.94161698  0.40644135  0.94445325     0.01350
H1560       H  0.90660277  0.38224201  0.50782885     0.07240
H1561       H  0.49852103  0.38090450  0.90485530     0.07270
N1562       N  0.59751952  0.05504386  0.94245857    -0.25710
N1563       N  0.97850065  0.48784284  0.87517079    -0.25320
N1564       N  0.97615160  0.48999810  0.50865633     0.01710
C1565       C  0.57779176  0.16454670  0.91482235     0.43110
C1566       C  0.85611719  0.45422261  0.93826566    -0.06570
N1567       N  0.51619319  0.44628183  0.90578916    -0.25320
H1568       H  0.93216432  0.45260716  0.84334474     0.07260
N1569       N  0.56208531  0.14766903  0.94039745    -0.46540
H1570       H  0.83892144  0.45771958  0.95566234     0.07250
C1571       C  0.91973561  0.35092310  0.97014319     0.42950
C1572       C  0.97191621  0.10154392  0.97897526    -0.06070
Co1573     Co  0.93518635  0.47453859  0.97414756     0.73820
N1574       N  0.87295523  0.43642297  0.89673152    -0.46260
C1575       C  0.65468666  0.08143097  0.96911939     0.43210
N1576       N  0.96621145  0.47129686  0.53388083    -0.46250
Co1577     Co  0.95970914  0.44689281  0.90974721     0.73890
C1578       C  0.52306435  0.41387381  0.90458415    -0.06580
C1579       C  0.57624756  0.13129483  0.89725857    -0.06140
N1580       N  0.51371598  0.02507395  0.50819764    -0.25670
N1581       N  0.52488230  0.04121663  0.84892625    -0.46430
H1582       H  0.65311118  0.05931578  0.92357774     0.07220
C1583       C  0.91840364  0.38381444  0.98662512    -0.06550
Cl1584     Cl  0.99629909  0.00701338  0.94156292    -0.49560
C1585       C  0.84185751  0.43986093  0.90967014     0.42970
H1586       H  0.56019717  0.05811720  0.54048336     0.07190
N1587       N  0.93388170  0.36715206  0.94413213    -0.46270
C1588       C  0.84115351  0.43439497  0.72588128     0.42820
N1589       N  0.89492463  0.45209467  0.69873189     0.01710
C1590       C  0.59005733  0.47533885  0.72734035    -0.06160
H1591       H  0.55838104  0.07349748  0.78821070     0.07210
C1592       C  0.55398204  0.14217872  0.68949156    -0.06510
Co1593     Co  0.96377560  0.44544122  0.72725274     0.74180
N1594       N  0.52078216  0.02545023  0.75779396    -0.25690
Co1595     Co  0.55917197  0.03982864  0.72182520     0.74070
C1596       C  0.57062811  0.15908453  0.71725845     0.42930
N1597       N  0.97120434  0.05828065  0.65496026     0.01330
N1598       N  0.55899484  0.09574485  0.71466418     0.01440
N1599       N  0.52722542  0.41381537  0.73019773    -0.46540
H1600       H  0.87364004  0.42245648  0.76329809     0.07190
N1601       N  0.98413204  0.48960878  0.75975802     0.01720
N1602       N  0.59686009  0.05323991  0.68598658     0.01460
C1603       C  0.65151647  0.07361190  0.65956402     0.43070
N1604       N  0.93453672  0.02256955  0.65746283    -0.25150
C1605       C  0.93425861  0.36200064  0.69681611    -0.06070
N1606       N  0.85571192  0.44520465  0.69919462    -0.46250
N1607       N  0.63639904  0.06127531  0.68595292    -0.46480
C1608       C  0.91517483  0.34354484  0.66993711     0.42840
N1609       N  0.52167264  0.44673309  0.72908314     0.01710
N1610       N  0.97133477  0.48028246  0.62616997    -0.25170
N1611       N  0.90668389  0.44489593  0.72339880    -0.25660
N1612       N  0.50831083  0.01597778  0.62454971     0.01350
H1613       H  0.93249472  0.43516648  0.59451515     0.07240
H1614       H  0.61917965  0.08486405  0.62179777     0.07270
N1615       N  0.55791943  0.48298021  0.72716041    -0.25710
N1616       N  0.54776870  0.10304576  0.68986449    -0.25320
N1617       N  0.93199105  0.40871642  0.67007668     0.01710
C1618       C  0.99327463  0.01670976  0.80108271     0.43110
C1619       C  0.90319104  0.03145278  0.65751144    -0.06570
N1620       N  0.58536665  0.06057084  0.66127802    -0.25320
H1621       H  0.54899910  0.15725408  0.67154516     0.07260
N1622       N  0.96695785  0.48294689  0.78534042    -0.46540
H1623       H  0.86960255  0.00874051  0.65968014     0.07250
C1624       C  0.99806914  0.49189590  0.58218597     0.42950
C1625       C  0.87457851  0.43319803  0.74189779    -0.06070
Co1626     Co  0.93260813  0.46530277  0.66262163     0.73820
N1627       N  0.96688728  0.09173189  0.65312820    -0.46260
C1628       C  0.56964990  0.42932491  0.72874151     0.43210
N1629       N  0.91398094  0.37408418  0.65454311    -0.46250
Co1630     Co  0.52845232  0.05972313  0.65723452     0.73890
C1631       C  0.61793164  0.07344635  0.64304119    -0.06580
C1632       C  0.52921939  0.04494871  0.78284868    -0.06140
N1633       N  0.94354070  0.40201519  0.69498029    -0.25670
N1634       N  0.57349753  0.12871115  0.73155860    -0.46430
H1635       H  0.62339517  0.49910707  0.72588197     0.07220
C1636       C  0.96225283  0.46264901  0.60039102    -0.06550
Cl1637     Cl  0.99598896  0.00247472  0.69218452    -0.49560
C1638       C  0.92495679  0.07743062  0.65469950     0.42970
H1639       H  0.93719359  0.34708597  0.71566896     0.07190
N1640       N  0.52489223  0.02421825  0.59872965    -0.46270
C1641       C  0.59971641  0.23567238  0.70685983    -0.11900
C1642       C  0.58844838  0.20324822  0.72677181     0.05110
C1643       C  0.59586435  0.21382228  0.75539806    -0.07190
C1644       C  0.61741520  0.25631286  0.76312324    -0.07930
C1645       C  0.63311151  0.28998756  0.74329747    -0.02480
C1646       C  0.62107423  0.27845528  0.71456740     0.04330
N1647       N  0.62828108  0.30900638  0.69296425     0.66840
H1648       H  0.59282909  0.22805324  0.68480164     0.15740
H1649       H  0.62007169  0.26202714  0.78525471     0.15450
N1650       N  0.58025924  0.18190426  0.77713613     0.74540
O1651       O  0.59795953  0.30311192  0.67732395    -0.38910
O1652       O  0.66545810  0.33784417  0.68648288    -0.38850
O1653       O  0.60320373  0.18599878  0.79804938    -0.39550
O1654       O  0.54170647  0.15283306  0.77748372    -0.39620
C1655       C  0.56845968  0.36360879  0.74276996    -0.11900
C1656       C  0.59020515  0.40331316  0.72963404     0.05110
C1657       C  0.63156896  0.41780375  0.71885327    -0.07190
C1658       C  0.65200293  0.39505526  0.72487240    -0.07930
C1659       C  0.63245974  0.35764243  0.74147812    -0.02480
C1660       C  0.58841996  0.34040697  0.74823983     0.04330
N1661       N  0.56374591  0.30035319  0.76211088     0.66840
H1662       H  0.53596373  0.35096755  0.74994997     0.15740
H1663       H  0.68335641  0.40709634  0.71600435     0.15450
N1664       N  0.65281735  0.45455434  0.70091744     0.74540
O1665       O  0.55552987  0.29925014  0.78807221    -0.38910
O1666       O  0.54042163  0.26833383  0.74741553    -0.38850
O1667       O  0.69251839  0.47904751  0.70258112    -0.39550
O1668       O  0.63318796  0.45917592  0.68071266    -0.39620
C1669       C  0.73127336  0.40361066  0.75297883    -0.11900
C1670       C  0.70599977  0.36141034  0.74333823     0.05110
C1671       C  0.72789601  0.34430330  0.72812766    -0.07190
C1672       C  0.77160141  0.36956773  0.72267404    -0.07930
C1673       C  0.79552173  0.41064716  0.73282701    -0.02480
C1674       C  0.77534909  0.42816008  0.74828659     0.04330
N1675       N  0.79857721  0.47051030  0.75925700     0.66840
H1676       H  0.71626133  0.41744027  0.76506327     0.15740
H1677       H  0.78756475  0.35622370  0.71102696     0.15450
N1678       N  0.70829645  0.30130321  0.71912084     0.74540
O1679       O  0.77951737  0.99022331  0.76479561    -0.38910
O1680       O  0.83737547  0.48735845  0.76542936    -0.38850
O1681       O  0.70955209  0.29396881  0.69326346    -0.39550
O1682       O  0.70269469  0.27311663  0.73676331    -0.39620
C1683       C  0.58999408  0.21919314  0.88031277    -0.11900
C1684       C  0.59696130  0.20951739  0.90737191     0.05110
C1685       C  0.61924963  0.24241600  0.92679216    -0.07190
C1686       C  0.63611388  0.28447319  0.91778919    -0.07930
C1687       C  0.63374567  0.29500832  0.88944429    -0.02480
C1688       C  0.60525461  0.26088349  0.87161996     0.04330
N1689       N  0.58612954  0.26674493  0.84692579     0.66840
H1690       H  0.56952705  0.19358708  0.86642701     0.15740
H1691       H  0.65389800  0.30963872  0.93263501     0.15450
N1692       N  0.62793037  0.23425784  0.95489746     0.74540
O1693       O  0.57538479  0.24083144  0.82697468    -0.38910
O1694       O  0.56917091  0.28913076  0.84843243    -0.38850
O1695       O  0.64183246  0.20949989  0.95885672    -0.39550
O1696       O  0.62891457  0.25711990  0.97498530    -0.39620
C1697       C  0.66004511  0.41040411  0.89812699    -0.11900
C1698       C  0.63773214  0.36567858  0.89541099     0.05110
C1699       C  0.59341106  0.34496284  0.90355491    -0.07190
C1700       C  0.57292048  0.36812214  0.90625392    -0.07930
C1701       C  0.59452435  0.41191302  0.90320131    -0.02480
C1702       C  0.63921857  0.43350794  0.90084117     0.04330
N1703       N  0.66415077  0.47873487  0.89893268     0.66840
H1704       H  0.69384545  0.42919349  0.89682064     0.15740
H1705       H  0.53937044  0.35104984  0.91139247     0.15450
N1706       N  0.56936870  0.30227764  0.91369352     0.74540
O1707       O  0.69592156  0.49862010  0.91468033    -0.38910
O1708       O  0.66060131  0.49740957  0.87764872    -0.38850
O1709       O  0.57129225  0.29585528  0.93967354    -0.39550
O1710       O  0.53631992  0.27629580  0.90070077    -0.39620
C1711       C  0.73629545  0.40522360  0.87473476    -0.11900
C1712       C  0.70897881  0.36482393  0.88732087     0.05110
C1713       C  0.73081860  0.34739150  0.90239612    -0.07190
C1714       C  0.77290590  0.37415176  0.91094606    -0.07930
C1715       C  0.79713010  0.41559157  0.90110778    -0.02480
C1716       C  0.77950566  0.43076110  0.88136643     0.04330
N1717       N  0.80442394  0.47153167  0.86779278     0.66840
H1718       H  0.72335366  0.41794889  0.85980064     0.15740
H1719       H  0.78836863  0.36127253  0.92356868     0.15450
N1720       N  0.71519760  0.30299656  0.90571585     0.74540
O1721       O  0.79313572  0.47871689  0.84431188    -0.38910
O1722       O  0.83680096  0.50108415  0.87947236    -0.38850
O1723       O  0.70503293  0.27970786  0.88432208    -0.39550
O1724       O  0.72131550  0.28932200  0.92862249    -0.39620
C1725       C  0.67959945  0.32668264  0.83270404    -0.11900
C1726       C  0.65948861  0.34524750  0.84723922     0.05110
C1727       C  0.64395914  0.36636678  0.83017268    -0.07190
C1728       C  0.64546742  0.36453466  0.80076311    -0.07930
C1729       C  0.66075225  0.34125306  0.78635394    -0.02480
C1730       C  0.68206307  0.32591665  0.80337675     0.04330
N1731       N  0.70652717  0.30911891  0.79173076     0.66840
H1732       H  0.69454825  0.31271568  0.84440510     0.15740
H1733       H  0.63458054  0.38273608  0.78951732     0.15450
N1734       N  0.62621598  0.39005694  0.84123157     0.74540
O1735       O  0.74568226  0.33421485  0.78735032    -0.38910
O1736       O  0.69409419  0.27063719  0.79611145    -0.38850
O1737       O  0.64738962  0.42969678  0.83817533    -0.39550
O1738       O  0.58628601  0.37224854  0.84318714    -0.39620
C1739       C  0.76927784  0.15057691  0.66322433    -0.11900
C1740       C  0.78597693  0.13812480  0.64041359     0.05110
C1741       C  0.75594814  0.09852325  0.62750438    -0.07190
C1742       C  0.71221809  0.08110106  0.63236187    -0.07930
C1743       C  0.69701692  0.09703748  0.65283105    -0.02480
C1744       C  0.72582743  0.13125673  0.66922405     0.04330
N1745       N  0.71166555  0.14795219  0.69138887     0.66840
H1746       H  0.78986850  0.17676016  0.67650857     0.15740
H1747       H  0.68980012  0.05199739  0.62198969     0.15450
N1748       N  0.76736985  0.07097694  0.61377472     0.74540
O1749       O  0.73344060  0.16240329  0.71342826    -0.38910
O1750       O  0.68030336  0.15290761  0.68767137    -0.38850
O1751       O  0.78634461  0.05622999  0.62753414    -0.39550
O1752       O  0.74784596  0.05160819  0.59188739    -0.39620
C1753       C  0.85705313  0.28172996  0.64576127    -0.11900
C1754       C  0.89286769  0.29811002  0.66289420     0.05110
C1755       C  0.90546140  0.27050167  0.67387450    -0.07190
C1756       C  0.88384192  0.22808377  0.66592206    -0.07930
C1757       C  0.85139322  0.21225057  0.64546150    -0.02480
C1758       C  0.83559182  0.23943554  0.63707838     0.04330
N1759       N  0.80247488  0.22748777  0.61655985     0.66840
H1760       H  0.84613228  0.30244387  0.63828529     0.15740
H1761       H  0.89501581  0.20850597  0.67487092     0.15450
N1762       N  0.94191059  0.28524692  0.69161327     0.74540
O1763       O  0.80875424  0.25222085  0.59615626    -0.38950
O1764       O  0.76459718  0.20002812  0.62256134    -0.38850
O1765       O  0.94004585  0.26410831  0.71319048    -0.39550
O1766       O  0.97759393  0.31518161  0.68333997    -0.39620
C1767       C  0.90190057  0.16218864  0.63232485    -0.11900
C1768       C  0.86081473  0.14726214  0.64371182     0.05110
C1769       C  0.84622216  0.11420412  0.66434249    -0.07190
C1770       C  0.86724579  0.09140029  0.66722647    -0.07930
C1771       C  0.90582949  0.10429699  0.65326980    -0.02480
C1772       C  0.92492746  0.14226423  0.63765298     0.04330
N1773       N  0.96737115  0.16095302  0.62666718     0.66840
H1774       H  0.91620946  0.18906207  0.61841893     0.15740
H1775       H  0.85418056  0.06437827  0.68139573     0.15450
N1776       N  0.81226936  0.10475745  0.68372807     0.74540
O1777       O  0.97444031  0.17069421  0.60084512    -0.38910
O1778       O  0.99808923  0.17713767  0.64356033    -0.38850
O1779       O  0.78247833  0.06701291  0.68711526    -0.39550
O1780       O  0.81788221  0.13152254  0.70229612    -0.39620
C1781       C  0.70785169  0.10875073  0.50660523    -0.11900
C1782       C  0.69977299  0.10438354  0.97784090     0.05110
C1783       C  0.73448317  0.12325091  0.95871725    -0.07190
C1784       C  0.77610696  0.14420379  0.96899480    -0.07930
C1785       C  0.78518237  0.14751238  0.99812213    -0.02480
C1786       C  0.74913971  0.13070986  0.51717333     0.04330
N1787       N  0.75200375  0.13652045  0.54711817     0.66840
H1788       H  0.68135388  0.09575352  0.52139959     0.15740
H1789       H  0.80211969  0.15859535  0.95386782     0.15450
N1790       N  0.72854455  0.12397538  0.92894086     0.74540
O1791       O  0.76028451  0.17160736  0.55699165    -0.38910
O1792       O  0.73236344  0.10438380  0.56282769    -0.38850
O1793       O  0.70930911  0.14169369  0.91937312    -0.39550
O1794       O  0.74913178  0.11431772  0.91215834    -0.39620
C1795       C  0.88597790  0.23428807  0.97297436    -0.11900
C1796       C  0.85212840  0.21804172  0.99301858     0.05110
C1797       C  0.83668412  0.24562732  0.50014343    -0.07190
C1798       C  0.86019613  0.28846886  0.99294819    -0.07930
C1799       C  0.89739854  0.30524451  0.97689126    -0.02480
C1800       C  0.90973586  0.27754527  0.96578466     0.04330
N1801       N  0.94742799  0.29284356  0.94860583     0.66840
H1802       H  0.89618649  0.21412955  0.96373855     0.15740
H1803       H  0.84825144  0.30873534  0.49948398     0.15450
N1804       N  0.79728823  0.23165886  0.51458123     0.74540
O1805       O  0.98119074  0.32620369  0.95523357    -0.38910
O1806       O  0.94889966  0.27001759  0.92935816    -0.38850
O1807       O  0.79759614  0.25090017  0.53662469    -0.39550
O1808       O  0.76364381  0.21394903  0.50034197    -0.39620
C1809       C  0.83967296  0.11306023  0.97999060    -0.11900
C1810       C  0.85912098  0.15128686  0.99545555     0.05110
C1811       C  0.90245325  0.16737794  0.00353861    -0.07190
C1812       C  0.92324801  0.14543171  0.99690935    -0.07930
C1813       C  0.90292966  0.10699533  0.98272938    -0.02480
C1814       C  0.86093229  0.09116688  0.97344517     0.04330
N1815       N  0.83942874  0.05324237  0.95708985     0.66840
H1816       H  0.80696599  0.09820164  0.97378673     0.15740
H1817       H  0.95537048  0.15791296  0.00438761     0.15450
N1818       N  0.92529697  0.20410494  0.02069880     0.74540
O1819       O  0.80003846  0.02806189  0.46050133    -0.38910
O1820       O  0.85829536  0.04784758  0.93658771    -0.38850
O1821       O  0.93189984  0.19897403  0.54610316    -0.39550
O1822       O  0.95026771  0.23910216  0.00893469    -0.39620
C1823       C  0.85763895  0.21090659  0.55406810    -0.11900
C1824       C  0.83820365  0.17280204  0.53895332     0.05110
C1825       C  0.82942241  0.13580058  0.55446420    -0.07190
C1826       C  0.83449614  0.13778390  0.58359495    -0.07930
C1827       C  0.84271248  0.17320258  0.59935822    -0.02480
C1828       C  0.86282178  0.21211069  0.58337973     0.04330
N1829       N  0.89400636  0.25240288  0.59475559     0.66840
H1830       H  0.87327293  0.24079748  0.54311005     0.15740
H1831       H  0.83412858  0.11153232  0.59381924     0.15450
N1832       N  0.81730067  0.09620594  0.54129011     0.74540
O1833       O  0.89627725  0.28581281  0.58560088    -0.38910
O1834       O  0.92518214  0.25576545  0.60822024    -0.38850
O1835       O  0.83887290  0.07877212  0.54573232    -0.39550
O1836       O  0.78118403  0.07483694  0.53026198    -0.39620
C1837       C  0.83333326  0.67236299  0.00636937    -0.02120
C1838       C  0.83491875  0.66747305  0.13241709    -0.02120
C1839       C  0.65941614  0.84256458  0.38031495    -0.02120
C1840       C  0.65810093  0.83706520  0.25317181    -0.02120
C1841       C  0.92592105  0.58355851  0.47959229     0.42820
N1842       N  0.93967787  0.53335391  0.47766210     0.01710
C1843       C  0.63745983  0.56291606  0.44184213    -0.06160
H1844       H  0.58883831  0.63340881  0.37623034     0.07210
C1845       C  0.96084114  0.98098773  0.34962043    -0.06510
Co1846     Co  0.53341273  0.56682823  0.47355637     0.74180
N1847       N  0.56016793  0.59735227  0.41429145    -0.25690
Co1848     Co  0.55681822  0.53966975  0.40868511     0.74070
C1849       C  0.99153982  0.51640653  0.33220483     0.42930
N1850       N  0.90435847  0.94929156  0.41498045     0.01330
N1851       N  0.51542890  0.52353021  0.37444778     0.01440
N1852       N  0.62295451  0.58166815  0.48390373    -0.46540
H1853       H  0.99709154  0.63429410  0.47874715     0.07190
N1854       N  0.55185336  0.60768524  0.43916336     0.01720
N1855       N  0.55320387  0.98177935  0.40532756     0.01460
C1856       C  0.56946015  0.93344989  0.40378888     0.43070
N1857       N  0.89510499  0.95946062  0.43956687    -0.25150
C1858       C  0.53101887  0.53055429  0.03387547    -0.06070
N1859       N  0.90796699  0.54104839  0.47903009    -0.46250
N1860       N  0.58578385  0.97556774  0.40436025    -0.46480
C1861       C  0.99955780  0.99474301  0.05091688     0.42840
N1862       N  0.58927541  0.56516664  0.46738689     0.01710
N1863       N  0.93238840  0.91686375  0.46895567    -0.25170
N1864       N  0.97732588  0.56822896  0.47756186    -0.25660
N1865       N  0.94161697  0.90644134  0.44445326     0.01350
H1866       H  0.90660280  0.88224202  0.00782884     0.07240
H1867       H  0.49852104  0.88090450  0.40485532     0.07270
N1868       N  0.59751952  0.55504387  0.44245856    -0.25710
N1869       N  0.97850063  0.98784281  0.37517079    -0.25320
N1870       N  0.97615160  0.98999810  0.00865633     0.01710
C1871       C  0.57779175  0.66454670  0.41482234     0.43110
C1872       C  0.85611718  0.95422259  0.43826566    -0.06570
N1873       N  0.51619319  0.94628182  0.40578917    -0.25320
H1874       H  0.93216429  0.95260712  0.34334475     0.07260
N1875       N  0.56208530  0.64766903  0.44039744    -0.46540
H1876       H  0.83892143  0.95771957  0.45566234     0.07250
C1877       C  0.91973555  0.85092307  0.47014320     0.42950
C1878       C  0.97191620  0.60154391  0.47897525    -0.06070
Co1879     Co  0.93518635  0.97453858  0.47414756     0.73820
N1880       N  0.87295522  0.93642295  0.39673153    -0.46260
C1881       C  0.65468666  0.58143099  0.46911938     0.43210
N1882       N  0.96621144  0.97129685  0.03388083    -0.46250
Co1883     Co  0.95970912  0.94689279  0.40974722     0.73890
C1884       C  0.52306435  0.91387381  0.40458417    -0.06580
C1885       C  0.57624754  0.63129482  0.39725855    -0.06140
N1886       N  0.51371598  0.52507395  0.00819764    -0.25670
N1887       N  0.52488226  0.54121660  0.34892625    -0.46430
H1888       H  0.65311119  0.55931581  0.42357772     0.07220
C1889       C  0.91840359  0.88381442  0.48662513    -0.06550
Cl1890     Cl  0.99629908  0.50701337  0.44156292    -0.49560
C1891       C  0.84185750  0.93986092  0.40967015     0.42970
H1892       H  0.56019716  0.55811717  0.04048337     0.07190
N1893       N  0.93388166  0.86715203  0.44413214    -0.46270
C1894       C  0.84115347  0.93439494  0.22588128     0.42820
N1895       N  0.89492458  0.95209462  0.19873188     0.01710
C1896       C  0.59005729  0.97533881  0.22734035    -0.06160
H1897       H  0.55838099  0.57349744  0.28821069     0.07210
C1898       C  0.55398200  0.64217867  0.18949155    -0.06510
Co1899     Co  0.96377556  0.94544119  0.22725274     0.74180
N1900       N  0.52078212  0.52545018  0.25779395    -0.25690
Co1901     Co  0.55917192  0.53982859  0.22182519     0.74070
C1902       C  0.57062807  0.65908449  0.21725844     0.42930
N1903       N  0.97120427  0.55828061  0.15496026     0.01330
N1904       N  0.55899479  0.59574480  0.21466417     0.01440
N1905       N  0.52722538  0.91381533  0.23019773    -0.46540
H1906       H  0.87364000  0.92245645  0.26329808     0.07190
N1907       N  0.98413200  0.98960875  0.25975802     0.01720
N1908       N  0.59686004  0.55323987  0.18598658     0.01460
C1909       C  0.65151642  0.57361188  0.15956401     0.43070
N1910       N  0.93453666  0.52256950  0.15746283    -0.25150
C1911       C  0.93425857  0.86200061  0.19681611    -0.06070
N1912       N  0.85571188  0.94520460  0.19919462    -0.46250
N1913       N  0.63639900  0.56127528  0.18595291    -0.46480
C1914       C  0.91517479  0.84354480  0.16993711     0.42840
N1915       N  0.52167260  0.94673304  0.22908314     0.01710
N1916       N  0.97133474  0.98028244  0.12616997    -0.25170
N1917       N  0.90668385  0.94489589  0.22339879    -0.25660
N1918       N  0.50831080  0.51597773  0.12454971     0.01350
H1919       H  0.93249470  0.93516645  0.09451515     0.07240
H1920       H  0.61917960  0.58486402  0.12179777     0.07270
N1921       N  0.55791938  0.98298017  0.22716040    -0.25710
N1922       N  0.54776864  0.60304571  0.18986448    -0.25320
N1923       N  0.93199102  0.90871638  0.17007668     0.01710
C1924       C  0.99327457  0.51670973  0.30108271     0.43110
C1925       C  0.90319097  0.53145273  0.15751144    -0.06570
N1926       N  0.58536660  0.56057080  0.16127802    -0.25320
H1927       H  0.54899907  0.65725404  0.17154514     0.07260
N1928       N  0.96695780  0.98294685  0.28534042    -0.46540
H1929       H  0.86960249  0.50874045  0.15968013     0.07250
C1930       C  0.99806912  0.99189588  0.08218597     0.42950
C1931       C  0.87457847  0.93319799  0.24189778    -0.06070
Co1932     Co  0.93260809  0.96530273  0.16262163     0.73820
N1933       N  0.96688721  0.59173184  0.15312821    -0.46260
C1934       C  0.56964986  0.92932487  0.22874150     0.43210
N1935       N  0.91398091  0.87408415  0.15454311    -0.46250
Co1936     Co  0.52845228  0.55972308  0.15723452     0.73890
C1937       C  0.61793160  0.57344632  0.14304119    -0.06580
C1938       C  0.52921935  0.54494866  0.28284867    -0.06140
N1939       N  0.94354067  0.90201516  0.19498028    -0.25670
N1940       N  0.57349748  0.62871110  0.23155859    -0.46430
H1941       H  0.62339512  0.99910703  0.22588197     0.07220
C1942       C  0.96225281  0.96264898  0.10039101    -0.06550
Cl1943     Cl  0.99598891  0.50247468  0.19218452    -0.49560
C1944       C  0.92495672  0.57743057  0.15469950     0.42970
H1945       H  0.93719355  0.84708594  0.21566896     0.07190
N1946       N  0.52489220  0.52421821  0.09872965    -0.46270
C1947       C  0.59971637  0.73567233  0.20685982    -0.11900
C1948       C  0.58844834  0.70324818  0.22677180     0.05110
C1949       C  0.59586431  0.71382224  0.25539805    -0.07190
C1950       C  0.61741516  0.75631282  0.26312323    -0.07930
C1951       C  0.63311148  0.78998752  0.24329746    -0.02480
C1952       C  0.62107419  0.77845524  0.21456739     0.04330
N1953       N  0.62828104  0.80900634  0.19296423     0.66840
H1954       H  0.59282905  0.72805320  0.18480162     0.15740
H1955       H  0.62007166  0.76202711  0.28525470     0.15450
N1956       N  0.58025920  0.68190422  0.27713612     0.74540
O1957       O  0.59795949  0.80311187  0.17732393    -0.38910
O1958       O  0.66545806  0.83784413  0.18648286    -0.38850
O1959       O  0.60320369  0.68599875  0.29804938    -0.39550
O1960       O  0.54170643  0.65283303  0.27748371    -0.39620
C1961       C  0.56845964  0.86360875  0.24276995    -0.11900
C1962       C  0.59020511  0.90331312  0.22963403     0.05110
C1963       C  0.63156892  0.91780371  0.21885326    -0.07190
C1964       C  0.65200289  0.89505522  0.22487239    -0.07930
C1965       C  0.63245970  0.85764239  0.24147810    -0.02480
C1966       C  0.58841992  0.84040693  0.24823981     0.04330
N1967       N  0.56374587  0.80035315  0.26211086     0.66840
H1968       H  0.53596369  0.85096751  0.24994995     0.15740
H1969       H  0.68335637  0.90709630  0.21600433     0.15450
N1970       N  0.65281732  0.95455431  0.20091743     0.74540
O1971       O  0.55552983  0.79925010  0.28807219    -0.38910
O1972       O  0.54042159  0.76833379  0.24741551    -0.38850
O1973       O  0.69251836  0.97904749  0.20258113    -0.39550
O1974       O  0.63318794  0.95917590  0.18071266    -0.39620
C1975       C  0.73127332  0.90361062  0.25297881    -0.11900
C1976       C  0.70599973  0.86141030  0.24333821     0.05110
C1977       C  0.72789597  0.84430326  0.22812765    -0.07190
C1978       C  0.77160137  0.86956769  0.22267403    -0.07930
C1979       C  0.79552169  0.91064713  0.23282700    -0.02480
C1980       C  0.77534905  0.92816004  0.24828658     0.04330
N1981       N  0.79857717  0.97051026  0.25925699     0.66840
H1982       H  0.71626129  0.91744023  0.26506325     0.15740
H1983       H  0.78756471  0.85622366  0.21102695     0.15450
N1984       N  0.70829642  0.80130317  0.21912082     0.74540
O1985       O  0.77951733  0.49022326  0.26479560    -0.38910
O1986       O  0.83737543  0.98735841  0.26542935    -0.38850
O1987       O  0.70955206  0.79396877  0.19326345    -0.39550
O1988       O  0.70269466  0.77311659  0.23676329    -0.39620
C1989       C  0.58999405  0.71919314  0.38031276    -0.11900
C1990       C  0.59696129  0.70951739  0.40737190     0.05110
C1991       C  0.61924963  0.74241600  0.42679215    -0.07190
C1992       C  0.63611388  0.78447319  0.41778917    -0.07930
C1993       C  0.63374566  0.79500832  0.38944428    -0.02480
C1994       C  0.60525459  0.76088349  0.37161995     0.04330
N1995       N  0.58612951  0.76674494  0.34692579     0.66840
H1996       H  0.56952702  0.69358709  0.36642700     0.15740
H1997       H  0.65389801  0.80963872  0.43263500     0.15450
N1998       N  0.62793038  0.73425783  0.45489744     0.74540
O1999       O  0.57538477  0.74083147  0.32697467    -0.38910
O2000       O  0.56917085  0.78913075  0.34843246    -0.38850
O2001       O  0.64183246  0.70949988  0.45885670    -0.39550
O2002       O  0.62891461  0.75711990  0.47498529    -0.39620
C2003       C  0.66004507  0.91040412  0.39812693    -0.11900
C2004       C  0.63773216  0.86567861  0.39541097     0.05110
C2005       C  0.59341109  0.84496287  0.40355495    -0.07190
C2006       C  0.57292052  0.86812217  0.40625396    -0.07930
C2007       C  0.59452436  0.91191304  0.40320131    -0.02480
C2008       C  0.63921858  0.93350797  0.40084111     0.04330
N2009       N  0.66415076  0.97873490  0.39893257     0.66840
H2010       H  0.69384573  0.92919366  0.39682049     0.15740
H2011       H  0.53937042  0.85104984  0.41139256     0.15450
N2012       N  0.56936876  0.80227769  0.41369359     0.74540
O2013       O  0.69592161  0.99862017  0.41468016    -0.38910
O2014       O  0.66060121  0.99740954  0.37764861    -0.38850
O2015       O  0.57129234  0.79585536  0.43967361    -0.39550
O2016       O  0.53631998  0.77629582  0.40070085    -0.39620
C2017       C  0.73629545  0.90522359  0.37473473    -0.11900
C2018       C  0.70897880  0.86482392  0.38732085     0.05110
C2019       C  0.73081859  0.84739150  0.40239612    -0.07190
C2020       C  0.77290589  0.87415176  0.41094607    -0.07930
C2021       C  0.79713009  0.91559156  0.40110778    -0.02480
C2022       C  0.77950567  0.93076108  0.38136641     0.04330
N2023       N  0.80442396  0.97153164  0.36779275     0.66840
H2024       H  0.72335371  0.91794884  0.35980062     0.15740
H2025       H  0.78836860  0.86127253  0.42356870     0.15450
N2026       N  0.71519759  0.80299656  0.40571584     0.74540
O2027       O  0.79313576  0.97871685  0.34431184    -0.38910
O2028       O  0.83680098  0.00108413  0.37947233    -0.38850
O2029       O  0.70503292  0.77970786  0.38432206    -0.39550
O2030       O  0.72131550  0.78932199  0.42862247    -0.39620
C2031       C  0.67959943  0.82668263  0.33270402    -0.11900
C2032       C  0.65948860  0.84524749  0.34723921     0.05110
C2033       C  0.64395911  0.86636675  0.33017267    -0.07190
C2034       C  0.64546738  0.86453462  0.30076309    -0.07930
C2035       C  0.66075222  0.84125302  0.28635393    -0.02480
C2036       C  0.68206304  0.82591662  0.30337674     0.04330
N2037       N  0.70652714  0.80911888  0.29173074     0.66840
H2038       H  0.69454824  0.81271567  0.34440509     0.15740
H2039       H  0.63458049  0.88273603  0.28951730     0.15450
N2040       N  0.62621593  0.89005690  0.34123155     0.74540
O2041       O  0.74568223  0.83421482  0.28735031    -0.38910
O2042       O  0.69409415  0.77063716  0.29611144    -0.38850
O2043       O  0.64738954  0.92969675  0.33817527    -0.39550
O2044       O  0.58628597  0.87224848  0.34318716    -0.39620
C2045       C  0.76927780  0.65057686  0.16322432    -0.11900
C2046       C  0.78597688  0.63812477  0.14041357     0.05110
C2047       C  0.75594808  0.59852324  0.12750434    -0.07190
C2048       C  0.71221803  0.58110106  0.13236184    -0.07930
C2049       C  0.69701687  0.59703746  0.15283104    -0.02480
C2050       C  0.72582740  0.63125668  0.16922406     0.04330
N2051       N  0.71166553  0.64795211  0.19138891     0.66840
H2052       H  0.78986846  0.67676009  0.17650858     0.15740
H2053       H  0.68980005  0.55199741  0.12198964     0.15450
N2054       N  0.76736977  0.57097693  0.11377467     0.74540
O2055       O  0.73344058  0.66240316  0.21342830    -0.38910
O2056       O  0.68030335  0.65290757  0.18767142    -0.38850
O2057       O  0.78634456  0.55622999  0.12753407    -0.39550
O2058       O  0.74784584  0.55160815  0.09188736    -0.39620
C2059       C  0.85705308  0.78172992  0.14576127    -0.11900
C2060       C  0.89286764  0.79810998  0.16289420     0.05110
C2061       C  0.90546135  0.77050162  0.17387451    -0.07190
C2062       C  0.88384188  0.72808373  0.16592207    -0.07930
C2063       C  0.85139317  0.71225053  0.14546151    -0.02480
C2064       C  0.83559177  0.73943550  0.13707840     0.04330
N2065       N  0.80247478  0.72748769  0.11655990     0.66840
H2066       H  0.84613223  0.80244382  0.13828529     0.15740
H2067       H  0.89501576  0.70850593  0.17487093     0.15450
N2068       N  0.94191054  0.78524688  0.19161329     0.74540
O2069       O  0.80875419  0.75222065  0.09615623    -0.38950
O2070       O  0.76459706  0.70002828  0.12256153    -0.38850
O2071       O  0.94004577  0.76410827  0.21319051    -0.39550
O2072       O  0.97759388  0.81518155  0.18333999    -0.39620
C2073       C  0.90190053  0.66218861  0.13232489    -0.11900
C2074       C  0.86081466  0.64726208  0.14371183     0.05110
C2075       C  0.84622205  0.61420403  0.16434247    -0.07190
C2076       C  0.86724568  0.59140019  0.16722644    -0.07930
C2077       C  0.90582941  0.60429693  0.15326981    -0.02480
C2078       C  0.92492742  0.64226421  0.13765303     0.04330
N2079       N  0.96737115  0.66095307  0.12666730     0.66840
H2080       H  0.91620943  0.68906208  0.11841900     0.15740
H2081       H  0.85418042  0.56437814  0.18139567     0.15450
N2082       N  0.81226921  0.60475730  0.18372803     0.74540
O2083       O  0.97444041  0.67069434  0.10084526    -0.38910
O2084       O  0.99808916  0.67713768  0.14356051    -0.38850
O2085       O  0.78247817  0.56701276  0.18711516    -0.39550
O2086       O  0.81788204  0.63152234  0.20229611    -0.39620
C2087       C  0.70785170  0.60875080  0.00660523    -0.11900
C2088       C  0.69977298  0.60438352  0.47784089     0.05110
C2089       C  0.73448317  0.62325093  0.45871725    -0.07190
C2090       C  0.77610696  0.64420379  0.46899481    -0.07930
C2091       C  0.78518236  0.64751233  0.49812214    -0.02480
C2092       C  0.74913973  0.63070994  0.01717332     0.04330
N2093       N  0.75200378  0.63652061  0.04711815     0.66840
H2094       H  0.68135391  0.59575361  0.02139960     0.15740
H2095       H  0.80211969  0.65859538  0.45386783     0.15450
N2096       N  0.72854456  0.62397547  0.42894087     0.74540
O2097       O  0.76028420  0.67160744  0.05699159    -0.38910
O2098       O  0.73236369  0.60438398  0.06282770    -0.38850
O2099       O  0.70930909  0.64169377  0.41937316    -0.39550
O2100       O  0.74913181  0.61431787  0.41215833    -0.39620
C2101       C  0.88597787  0.73428805  0.47297437    -0.11900
C2102       C  0.85212837  0.71804168  0.49301858     0.05110
C2103       C  0.83668415  0.74562735  0.00014342    -0.07190
C2104       C  0.86019607  0.78846881  0.49294821    -0.07930
C2105       C  0.89739848  0.80524448  0.47689127    -0.02480
C2106       C  0.90973582  0.77754525  0.46578467     0.04330
N2107       N  0.94742795  0.79284355  0.44860585     0.66840
H2108       H  0.89618646  0.71412954  0.46373855     0.15740
H2109       H  0.84825148  0.80873537  0.99948396     0.15450
N2110       N  0.79728827  0.73165891  0.01458122     0.74540
O2111       O  0.98119070  0.82620368  0.45523360    -0.38910
O2112       O  0.94889963  0.77001759  0.42935818    -0.38850
O2113       O  0.79759619  0.75090025  0.03662467    -0.39550
O2114       O  0.76364385  0.71394910  0.00034195    -0.39620
C2115       C  0.83967295  0.61306022  0.47999059    -0.11900
C2116       C  0.85912098  0.65128684  0.49545555     0.05110
C2117       C  0.90245326  0.66737793  0.50353860    -0.07190
C2118       C  0.92324801  0.64543170  0.49690934    -0.07930
C2119       C  0.90292966  0.60699532  0.48272937    -0.02480
C2120       C  0.86093229  0.59116687  0.47344516     0.04330
N2121       N  0.83942874  0.55324236  0.45708984     0.66840
H2122       H  0.80696599  0.59820163  0.47378672     0.15740
H2123       H  0.95537048  0.65791295  0.50438759     0.15450
N2124       N  0.92529698  0.70410493  0.52069879     0.74540
O2125       O  0.80003847  0.52806190  0.96050135    -0.38910
O2126       O  0.85829536  0.54784757  0.43658770    -0.38850
O2127       O  0.93189982  0.69897404  0.04610317    -0.39550
O2128       O  0.95026769  0.73910215  0.50893468    -0.39620
C2129       C  0.85763892  0.71090660  0.05406811    -0.11900
C2130       C  0.83820364  0.67280205  0.03895332     0.05110
C2131       C  0.82942239  0.63580058  0.05446419    -0.07190
C2132       C  0.83449612  0.63778389  0.08359495    -0.07930
C2133       C  0.84271246  0.67320257  0.09935822    -0.02480
C2134       C  0.86282175  0.71211068  0.08337974     0.04330
N2135       N  0.89400633  0.75240287  0.09475561     0.66840
H2136       H  0.87327289  0.74079748  0.04311006     0.15740
H2137       H  0.83412855  0.61153231  0.09381923     0.15450
N2138       N  0.81730063  0.59620594  0.04129010     0.74540
O2139       O  0.89627722  0.78581280  0.08560090    -0.38910
O2140       O  0.92518211  0.75576543  0.10822025    -0.38850
O2141       O  0.83887284  0.57877210  0.04573232    -0.39550
O2142       O  0.78118400  0.57483697  0.03026196    -0.39620
C2143       C  0.83333326  0.67236297  0.50636937    -0.02120
C2144       C  0.83491879  0.66747308  0.63241709    -0.02120
C2145       C  0.65941615  0.84256458  0.88031496    -0.02120
C2146       C  0.65810097  0.83706524  0.75317182    -0.02120
C2147       C  0.92592106  0.58355851  0.97959229     0.42820
N2148       N  0.93967787  0.53335392  0.97766210     0.01710
C2149       C  0.63745983  0.56291604  0.94184214    -0.06160
H2150       H  0.58883832  0.63340881  0.87623035     0.07210
C2151       C  0.96084117  0.98098776  0.84962042    -0.06510
Co2152     Co  0.53341273  0.56682822  0.97355637     0.74180
N2153       N  0.56016794  0.59735227  0.91429146    -0.25690
Co2154     Co  0.55681823  0.53966976  0.90868512     0.74070
C2155       C  0.99153987  0.51640657  0.83220483     0.42930
N2156       N  0.90435848  0.94929157  0.91498045     0.01330
N2157       N  0.51542892  0.52353023  0.87444779     0.01440
N2158       N  0.62295451  0.58166814  0.98390374    -0.46540
H2159       H  0.99709155  0.63429410  0.97874716     0.07190
N2160       N  0.55185336  0.60768524  0.93916337     0.01720
N2161       N  0.55320389  0.98177936  0.90532756     0.01460
C2162       C  0.56946014  0.93344988  0.90378888     0.43070
N2163       N  0.89510500  0.95946064  0.93956687    -0.25150
C2164       C  0.53101888  0.53055431  0.53387547    -0.06070
N2165       N  0.90796699  0.54104839  0.97903008    -0.46250
N2166       N  0.58578385  0.97556773  0.90436025    -0.46480
C2167       C  0.99955782  0.99474303  0.55091687     0.42840
N2168       N  0.58927540  0.56516664  0.96738690     0.01710
N2169       N  0.93238840  0.91686376  0.96895566    -0.25170
N2170       N  0.97732589  0.56822896  0.97756186    -0.25660
N2171       N  0.94161697  0.90644135  0.94445325     0.01350
H2172       H  0.90660278  0.88224202  0.50782885     0.07240
H2173       H  0.49852102  0.88090451  0.90485529     0.07270
N2174       N  0.59751952  0.55504386  0.94245857    -0.25710
N2175       N  0.97850064  0.98784283  0.87517079    -0.25320
N2176       N  0.97615160  0.98999810  0.50865632     0.01710
C2177       C  0.57779175  0.66454670  0.91482235     0.43110
C2178       C  0.85611718  0.95422261  0.93826566    -0.06570
N2179       N  0.51619320  0.94628183  0.90578916    -0.25320
H2180       H  0.93216432  0.95260715  0.84334474     0.07260
N2181       N  0.56208530  0.64766903  0.94039745    -0.46540
H2182       H  0.83892144  0.95771958  0.95566234     0.07250
C2183       C  0.91973557  0.85092309  0.97014319     0.42950
C2184       C  0.97191621  0.60154391  0.97897525    -0.06070
Co2185     Co  0.93518635  0.97453859  0.97414756     0.73820
N2186       N  0.87295522  0.93642296  0.89673152    -0.46260
C2187       C  0.65468666  0.58143098  0.96911939     0.43210
N2188       N  0.96621145  0.97129686  0.53388083    -0.46250
Co2189     Co  0.95970913  0.94689280  0.90974722     0.73890
C2190       C  0.52306435  0.91387381  0.90458415    -0.06580
C2191       C  0.57624755  0.63129482  0.89725856    -0.06140
N2192       N  0.51371599  0.52507396  0.50819764    -0.25670
N2193       N  0.52488229  0.54121663  0.84892625    -0.46430
H2194       H  0.65311119  0.55931579  0.92357773     0.07220
C2195       C  0.91840360  0.88381443  0.98662513    -0.06550
Cl2196     Cl  0.99629909  0.50701338  0.94156292    -0.49560
C2197       C  0.84185750  0.93986093  0.90967015     0.42970
H2198       H  0.56019717  0.55811720  0.54048336     0.07190
N2199       N  0.93388167  0.86715204  0.94413213    -0.46270
C2200       C  0.84115351  0.93439497  0.72588128     0.42820
N2201       N  0.89492462  0.95209466  0.69873189     0.01710
C2202       C  0.59005733  0.97533885  0.72734035    -0.06160
H2203       H  0.55838103  0.57349748  0.78821070     0.07210
C2204       C  0.55398204  0.64217872  0.68949156    -0.06510
Co2205     Co  0.96377560  0.94544121  0.72725274     0.74180
N2206       N  0.52078216  0.52545022  0.75779396    -0.25690
Co2207     Co  0.55917197  0.53982864  0.72182520     0.74070
C2208       C  0.57062810  0.65908453  0.71725845     0.42930
N2209       N  0.97120434  0.55828065  0.65496026     0.01330
N2210       N  0.55899484  0.59574485  0.71466418     0.01440
N2211       N  0.52722542  0.91381538  0.73019773    -0.46540
H2212       H  0.87364004  0.92245647  0.76329809     0.07190
N2213       N  0.98413204  0.98960878  0.75975802     0.01720
N2214       N  0.59686008  0.55323991  0.68598658     0.01460
C2215       C  0.65151646  0.57361190  0.65956402     0.43070
N2216       N  0.93453672  0.52256955  0.65746283    -0.25150
C2217       C  0.93425860  0.86200064  0.69681611    -0.06070
N2218       N  0.85571192  0.94520464  0.69919462    -0.46250
N2219       N  0.63639903  0.56127531  0.68595292    -0.46480
C2220       C  0.91517482  0.84354483  0.66993711     0.42840
N2221       N  0.52167265  0.94673309  0.72908314     0.01710
N2222       N  0.97133477  0.98028246  0.62616997    -0.25170
N2223       N  0.90668389  0.94489593  0.72339880    -0.25660
N2224       N  0.50831083  0.51597778  0.62454971     0.01350
H2225       H  0.93249472  0.93516648  0.59451515     0.07240
H2226       H  0.61917964  0.58486405  0.62179777     0.07270
N2227       N  0.55791943  0.98298022  0.72716041    -0.25710
N2228       N  0.54776869  0.60304575  0.68986449    -0.25320
N2229       N  0.93199105  0.90871641  0.67007668     0.01710
C2230       C  0.99327463  0.51670977  0.80108271     0.43110
C2231       C  0.90319104  0.53145278  0.65751144    -0.06570
N2232       N  0.58536664  0.56057084  0.66127802    -0.25320
H2233       H  0.54899909  0.65725408  0.67154516     0.07260
N2234       N  0.96695785  0.98294688  0.78534042    -0.46540
H2235       H  0.86960255  0.50874050  0.65968014     0.07250
C2236       C  0.99806914  0.99189590  0.58218597     0.42950
C2237       C  0.87457851  0.93319802  0.74189779    -0.06070
Co2238     Co  0.93260813  0.96530276  0.66262163     0.73820
N2239       N  0.96688728  0.59173189  0.65312821    -0.46260
C2240       C  0.56964990  0.92932491  0.72874151     0.43210
N2241       N  0.91398093  0.87408418  0.65454311    -0.46250
Co2242     Co  0.52845232  0.55972313  0.65723452     0.73890
C2243       C  0.61793164  0.57344635  0.64304119    -0.06580
C2244       C  0.52921939  0.54494870  0.78284868    -0.06140
N2245       N  0.94354070  0.90201519  0.69498028    -0.25670
N2246       N  0.57349752  0.62871115  0.73155860    -0.46430
H2247       H  0.62339517  0.99910707  0.72588197     0.07220
C2248       C  0.96225283  0.96264901  0.60039101    -0.06550
Cl2249     Cl  0.99598896  0.50247472  0.69218452    -0.49560
C2250       C  0.92495679  0.57743062  0.65469950     0.42970
H2251       H  0.93719358  0.84708596  0.71566896     0.07190
N2252       N  0.52489222  0.52421825  0.59872965    -0.46270
C2253       C  0.59971641  0.73567237  0.70685983    -0.11900
C2254       C  0.58844838  0.70324822  0.72677181     0.05110
C2255       C  0.59586434  0.71382228  0.75539806    -0.07190
C2256       C  0.61741520  0.75631286  0.76312324    -0.07930
C2257       C  0.63311151  0.78998756  0.74329747    -0.02480
C2258       C  0.62107423  0.77845528  0.71456740     0.04330
N2259       N  0.62828107  0.80900638  0.69296425     0.66840
H2260       H  0.59282909  0.72805324  0.68480164     0.15740
H2261       H  0.62007169  0.76202714  0.78525472     0.15450
N2262       N  0.58025924  0.68190425  0.77713613     0.74540
O2263       O  0.59795952  0.80311192  0.67732395    -0.38910
O2264       O  0.66545810  0.83784416  0.68648288    -0.38850
O2265       O  0.60320372  0.68599877  0.79804939    -0.39550
O2266       O  0.54170646  0.65283306  0.77748372    -0.39620
C2267       C  0.56845968  0.86360880  0.74276996    -0.11900
C2268       C  0.59020515  0.90331316  0.72963404     0.05110
C2269       C  0.63156896  0.91780374  0.71885327    -0.07190
C2270       C  0.65200293  0.89505526  0.72487240    -0.07930
C2271       C  0.63245974  0.85764243  0.74147812    -0.02480
C2272       C  0.58841996  0.84040697  0.74823983     0.04330
N2273       N  0.56374591  0.80035320  0.76211088     0.66840
H2274       H  0.53596373  0.85096756  0.74994997     0.15740
H2275       H  0.68335641  0.90709633  0.71600434     0.15450
N2276       N  0.65281735  0.95455434  0.70091743     0.74540
O2277       O  0.55552986  0.79925015  0.78807221    -0.38910
O2278       O  0.54042163  0.76833383  0.74741554    -0.38850
O2279       O  0.69251839  0.97904751  0.70258112    -0.39550
O2280       O  0.63318796  0.95917591  0.68071266    -0.39620
C2281       C  0.73127336  0.90361066  0.75297883    -0.11900
C2282       C  0.70599977  0.86141034  0.74333823     0.05110
C2283       C  0.72789601  0.84430330  0.72812766    -0.07190
C2284       C  0.77160141  0.86956773  0.72267404    -0.07930
C2285       C  0.79552173  0.91064716  0.73282701    -0.02480
C2286       C  0.77534909  0.92816008  0.74828659     0.04330
N2287       N  0.79857721  0.97051030  0.75925700     0.66840
H2288       H  0.71626133  0.91744027  0.76506327     0.15740
H2289       H  0.78756474  0.85622370  0.71102696     0.15450
N2290       N  0.70829645  0.80130320  0.71912084     0.74540
O2291       O  0.77951737  0.49022331  0.76479561    -0.38910
O2292       O  0.83737547  0.98735845  0.76542936    -0.38850
O2293       O  0.70955209  0.79396881  0.69326346    -0.39550
O2294       O  0.70269469  0.77311662  0.73676331    -0.39620
C2295       C  0.58999407  0.71919314  0.88031277    -0.11900
C2296       C  0.59696129  0.70951739  0.90737191     0.05110
C2297       C  0.61924962  0.74241600  0.92679216    -0.07190
C2298       C  0.63611387  0.78447318  0.91778918    -0.07930
C2299       C  0.63374566  0.79500832  0.88944429    -0.02480
C2300       C  0.60525461  0.76088349  0.87161995     0.04330
N2301       N  0.58612954  0.76674493  0.84692579     0.66840
H2302       H  0.56952705  0.69358708  0.86642701     0.15740
H2303       H  0.65389800  0.80963871  0.93263501     0.15450
N2304       N  0.62793036  0.73425783  0.95489746     0.74540
O2305       O  0.57538478  0.74083144  0.82697468    -0.38910
O2306       O  0.56917091  0.78913077  0.84843243    -0.38850
O2307       O  0.64183245  0.70949989  0.95885672    -0.39550
O2308       O  0.62891456  0.75711989  0.97498530    -0.39620
C2309       C  0.66004512  0.91040411  0.89812701    -0.11900
C2310       C  0.63773213  0.86567857  0.89541099     0.05110
C2311       C  0.59341105  0.84496283  0.90355490    -0.07190
C2312       C  0.57292047  0.86812213  0.90625391    -0.07930
C2313       C  0.59452435  0.91191302  0.90320131    -0.02480
C2314       C  0.63921856  0.93350794  0.90084119     0.04330
N2315       N  0.66415078  0.97873487  0.89893271     0.66840
H2316       H  0.69384540  0.92919346  0.89682067     0.15740
H2317       H  0.53937044  0.85104984  0.91139245     0.15450
N2318       N  0.56936868  0.80227763  0.91369351     0.74540
O2319       O  0.69592154  0.99862008  0.91468037    -0.38910
O2320       O  0.66060133  0.99740958  0.87764875    -0.38850
O2321       O  0.57129224  0.79585526  0.93967353    -0.39550
O2322       O  0.53631990  0.77629580  0.90070075    -0.39620
C2323       C  0.73629544  0.90522360  0.87473476    -0.11900
C2324       C  0.70897880  0.86482393  0.88732087     0.05110
C2325       C  0.73081860  0.84739150  0.90239612    -0.07190
C2326       C  0.77290590  0.87415176  0.91094606    -0.07930
C2327       C  0.79713010  0.91559157  0.90110778    -0.02480
C2328       C  0.77950565  0.93076110  0.88136644     0.04330
N2329       N  0.80442394  0.97153168  0.86779279     0.66840
H2330       H  0.72335365  0.91794889  0.85980065     0.15740
H2331       H  0.78836863  0.86127253  0.92356868     0.15450
N2332       N  0.71519760  0.80299656  0.90571585     0.74540
O2333       O  0.79313571  0.97871690  0.84431189    -0.38910
O2334       O  0.83680096  0.00108416  0.87947237    -0.38850
O2335       O  0.70503293  0.77970786  0.88432208    -0.39550
O2336       O  0.72131550  0.78932200  0.92862249    -0.39620
C2337       C  0.67959945  0.82668264  0.83270404    -0.11900
C2338       C  0.65948861  0.84524750  0.84723922     0.05110
C2339       C  0.64395915  0.86636679  0.83017268    -0.07190
C2340       C  0.64546742  0.86453466  0.80076311    -0.07930
C2341       C  0.66075226  0.84125306  0.78635395    -0.02480
C2342       C  0.68206307  0.82591665  0.80337675     0.04330
N2343       N  0.70652717  0.80911890  0.79173076     0.66840
H2344       H  0.69454825  0.81271568  0.84440510     0.15740
H2345       H  0.63458055  0.88273608  0.78951732     0.15450
N2346       N  0.62621599  0.89005695  0.84123157     0.74540
O2347       O  0.74568226  0.83421485  0.78735032    -0.38910
O2348       O  0.69409418  0.77063718  0.79611145    -0.38850
O2349       O  0.64738966  0.92969680  0.83817535    -0.39550
O2350       O  0.58628603  0.87224857  0.84318713    -0.39620
C2351       C  0.76927784  0.65057690  0.66322433    -0.11900
C2352       C  0.78597692  0.63812479  0.64041359     0.05110
C2353       C  0.75594813  0.59852326  0.62750437    -0.07190
C2354       C  0.71221808  0.58110106  0.63236187    -0.07930
C2355       C  0.69701692  0.59703748  0.65283105    -0.02480
C2356       C  0.72582743  0.63125671  0.66922406     0.04330
N2357       N  0.71166555  0.64795217  0.69138889     0.66840
H2358       H  0.78986849  0.67676014  0.67650858     0.15740
H2359       H  0.68980011  0.55199740  0.62198967     0.15450
N2360       N  0.76736983  0.57097694  0.61377470     0.74540
O2361       O  0.73344060  0.66240324  0.71342828    -0.38910
O2362       O  0.68030337  0.65290761  0.68767139    -0.38850
O2363       O  0.78634461  0.55623000  0.62753412    -0.39550
O2364       O  0.74784593  0.55160818  0.59188739    -0.39620
C2365       C  0.85705311  0.78172995  0.64576127    -0.11900
C2366       C  0.89286768  0.79811001  0.66289420     0.05110
C2367       C  0.90546139  0.77050166  0.67387451    -0.07190
C2368       C  0.88384191  0.72808377  0.66592207    -0.07930
C2369       C  0.85139321  0.71225056  0.64546150    -0.02480
C2370       C  0.83559181  0.73943553  0.63707839     0.04330
N2371       N  0.80247485  0.72748775  0.61655986     0.66840
H2372       H  0.84613226  0.80244386  0.63828529     0.15740
H2373       H  0.89501580  0.70850597  0.67487093     0.15450
N2374       N  0.94191058  0.78524691  0.69161328     0.74540
O2375       O  0.80875423  0.75222079  0.59615626    -0.38950
O2376       O  0.76459715  0.70002816  0.62256140    -0.38850
O2377       O  0.94004582  0.76410831  0.71319050    -0.39550
O2378       O  0.97759392  0.81518159  0.68333998    -0.39620
C2379       C  0.90190057  0.66218864  0.63232487    -0.11900
C2380       C  0.86081472  0.64726213  0.64371182     0.05110
C2381       C  0.84622214  0.61420410  0.66434248    -0.07190
C2382       C  0.86724577  0.59140027  0.66722646    -0.07930
C2383       C  0.90582948  0.60429698  0.65326980    -0.02480
C2384       C  0.92492746  0.64226424  0.63765300     0.04330
N2385       N  0.96737117  0.66095306  0.62666723     0.66840
H2386       H  0.91620946  0.68906208  0.61841895     0.15740
H2387       H  0.85418053  0.56437824  0.68139571     0.15450
N2388       N  0.81226932  0.60475741  0.68372806     0.74540
O2389       O  0.97444036  0.67069428  0.60084517    -0.38910
O2390       O  0.99808923  0.67713769  0.64356040    -0.38850
O2391       O  0.78247829  0.56701287  0.68711523    -0.39550
O2392       O  0.81788217  0.63152248  0.70229612    -0.39620
C2393       C  0.70785170  0.60875075  0.50660523    -0.11900
C2394       C  0.69977299  0.60438352  0.97784090     0.05110
C2395       C  0.73448317  0.62325092  0.95871725    -0.07190
C2396       C  0.77610696  0.64420379  0.96899480    -0.07930
C2397       C  0.78518236  0.64751235  0.99812213    -0.02480
C2398       C  0.74913972  0.63070989  0.51717332     0.04330
N2399       N  0.75200376  0.63652050  0.54711816     0.66840
H2400       H  0.68135389  0.59575355  0.52139959     0.15740
H2401       H  0.80211969  0.65859537  0.95386782     0.15450
N2402       N  0.72854455  0.62397543  0.92894087     0.74540
O2403       O  0.76028441  0.67160738  0.55699163    -0.38910
O2404       O  0.73236352  0.60438386  0.56282770    -0.38850
O2405       O  0.70930909  0.64169373  0.91937314    -0.39550
O2406       O  0.74913180  0.61431780  0.91215834    -0.39620
C2407       C  0.88597788  0.73428806  0.97297436    -0.11900
C2408       C  0.85212838  0.71804170  0.99301858     0.05110
C2409       C  0.83668413  0.74562733  0.50014343    -0.07190
C2410       C  0.86019610  0.78846883  0.99294820    -0.07930
C2411       C  0.89739851  0.80524449  0.97689126    -0.02480
C2412       C  0.90973584  0.77754526  0.96578466     0.04330
N2413       N  0.94742796  0.79284356  0.94860583     0.66840
H2414       H  0.89618647  0.71412954  0.96373855     0.15740
H2415       H  0.84825146  0.80873535  0.49948397     0.15450
N2416       N  0.79728825  0.73165888  0.51458123     0.74540
O2417       O  0.98119071  0.82620369  0.95523358    -0.38910
O2418       O  0.94889964  0.77001759  0.92935816    -0.38850
O2419       O  0.79759616  0.75090020  0.53662469    -0.39550
O2420       O  0.76364383  0.71394905  0.50034197    -0.39620
C2421       C  0.83967296  0.61306023  0.97999059    -0.11900
C2422       C  0.85912098  0.65128685  0.99545555     0.05110
C2423       C  0.90245326  0.66737794  0.00353861    -0.07190
C2424       C  0.92324801  0.64543171  0.99690934    -0.07930
C2425       C  0.90292966  0.60699533  0.98272937    -0.02480
C2426       C  0.86093229  0.59116688  0.97344517     0.04330
N2427       N  0.83942875  0.55324237  0.95708985     0.66840
H2428       H  0.80696599  0.59820164  0.97378672     0.15740
H2429       H  0.95537048  0.65791296  0.00438760     0.15450
N2430       N  0.92529698  0.70410494  0.02069879     0.74540
O2431       O  0.80003847  0.52806189  0.46050134    -0.38910
O2432       O  0.85829536  0.54784758  0.93658770    -0.38850
O2433       O  0.93189983  0.69897403  0.54610317    -0.39550
O2434       O  0.95026770  0.73910216  0.00893469    -0.39620
C2435       C  0.85763894  0.71090660  0.55406810    -0.11900
C2436       C  0.83820365  0.67280204  0.53895332     0.05110
C2437       C  0.82942241  0.63580058  0.55446420    -0.07190
C2438       C  0.83449614  0.63778390  0.58359495    -0.07930
C2439       C  0.84271248  0.67320258  0.59935823    -0.02480
C2440       C  0.86282178  0.71211069  0.58337973     0.04330
N2441       N  0.89400635  0.75240289  0.59475560     0.66840
H2442       H  0.87327292  0.74079748  0.54311005     0.15740
H2443       H  0.83412858  0.61153232  0.59381924     0.15450
N2444       N  0.81730066  0.59620594  0.54129011     0.74540
O2445       O  0.89627724  0.78581281  0.58560088    -0.38910
O2446       O  0.92518214  0.75576545  0.60822025    -0.38850
O2447       O  0.83887288  0.57877211  0.54573233    -0.39550
O2448       O  0.78118403  0.57483695  0.53026198    -0.39620
loop_ 
_geom_bond_atom_site_label_1 
_geom_bond_atom_site_label_2 
_geom_bond_distance 
_geom_bond_site_symmetry_2 
_ccdc_geom_bond_type 
C1          C294   1.556       .  S
C1          C561   1.569   1_554  S
C1          C572   1.583   1_554  S
C1          C586   1.581   1_554  S
C2          C210   1.591       .  S
C2          C227   1.569       .  S
C2          C238   1.567       .  S
C2          C297   1.586       .  S
C3          C157   1.563       .  S
C3          C168   1.597       .  S
C3          C182   1.601       .  S
C3          C196   1.572       .  S
C4          C115   1.567       .  S
C4          C129   1.577       .  S
C4          C140   1.573       .  S
C4          C199   1.581       .  S
C5           N23   1.353       .  A
C5           C42   1.460       .  S
C5          C283   1.487       .  S
N6           N23   1.327       .  A
N6           N28   1.319       .  A
N6         Co655   2.092   1_545  S
C7           N32   1.336       .  A
C7           C45   1.455       .  S
C7           H52   1.080       .  S
H8           C49   1.082       .  S
C9           N33   1.340       .  A
C9          C625   1.458       .  S
C9           H38   1.081       .  S
Co10         N18   2.075       .  S
Co10         N26   2.093       .  S
Co10       N1252   2.085   1_455  S
Co10        N356   2.100       .  S
Co10      Cl1278   2.450   1_455  S
N11          C49   1.339       .  A
N11          N18   1.321       .  A
N11         Co12   2.081       .  S
Co12         N15   2.099       .  S
Co12         N32   2.070       .  S
Co12        N631   2.072   1_545  S
Co12      Cl1278   2.449   1_455  S
C13        N1275   1.354       .  A
C13          C88   1.477       .  S
C13         C621   1.458   1_545  S
N14          N21   1.320       .  A
N14          N44   1.325       .  A
N14         Co47   2.083       .  S
N15          N51   1.329       .  A
N15        N1869   1.319   1_445  A
N16          C45   1.356       .  A
N16          N26   1.324       .  A
H17          C42   1.081       .  S
N18          N39   1.322       .  A
N19          N37   1.317       .  A
N19          N24   1.323       .  A
N19        Co624   2.072       .  S
C20          N24   1.348       .  A
C20          C48   1.467       .  S
C20         C171   1.486       .  S
N21          C36   1.339       .  A
N21         Co43   2.088       .  S
C22          N50   1.344       .  A
C22        C1861   1.465   1_445  S
C22          H56   1.081       .  S
C25          N46   1.353       .  A
C25          C94   1.485       .  S
C25        C1858   1.465       .  S
N26          N32   1.320       .  A
N27          C53   1.339       .  A
N27          N29   1.320       .  A
N27         Co43   2.087       .  S
N28          C42   1.339       .  A
N28       Co1234   2.085       .  S
N29          N57   1.324       .  A
N29         Co47   2.079       .  S
H30         C359   1.081   1_554  S
H31          C48   1.080   1_655  S
N33        N1851   1.319       .  A
N33         Co47   2.083       .  S
N34          N46   1.330       .  A
N34        N1886   1.321       .  A
N34        Co349   2.102   1_554  S
C35          N39   1.344       .  A
C35          C49   1.461       .  S
C35         C154   1.471       .  S
C36          C55   1.458       .  S
C36          H40   1.081       .  S
N37          C48   1.339       .  A
N37       Co1271   2.084   1_455  S
C41          N57   1.348       .  A
C41          C53   1.465       .  S
C41         C269   1.479       .  S
Co43        N618   2.092       .  S
Co43        N340   2.102       .  S
Co43       Cl666   2.455       .  S
N44          C55   1.350       .  A
C45         C252   1.482       .  S
Co47       N1261   2.084       .  S
Co47       Cl666   2.450       .  S
N50        N1870   1.321   1_445  A
N50        Co316   2.100   1_554  S
N51        C1237   1.354   1_455  A
C53         H336   1.081       .  S
Cl54      Co1234   2.450       .  S
Cl54      Co1236   2.449       .  S
Cl54       Co655   2.455   1_545  S
Cl54       Co659   2.450   1_545  S
C55         C185   1.470       .  S
C58          N76   1.347       .  A
C58          C95   1.463       .  S
C58         C143   1.470       .  S
N59          N76   1.323       .  A
N59          N81   1.321       .  A
N59         Co96   2.085       .  S
C60          N85   1.340       .  A
C60          C98   1.462       .  S
C60         H105   1.080       .  S
H61         C102   1.081       .  S
C62          N86   1.338       .  A
C62          C66   1.458       .  S
C62          H91   1.080       .  S
Co63         N81   2.086       .  S
Co63         N71   2.092       .  S
Co63        N103   2.068       .  S
Co63       N1303   2.095       .  S
Co63       Cl719   2.445       .  S
N64         C102   1.345       .  A
N64        N1907   1.319   1_445  A
N64         Co65   2.089       .  S
Co65         N68   2.087       .  S
Co65         N72   2.074       .  S
Co65        N697   2.083   1_545  S
Co65      Cl1331   2.455   1_455  S
C66         N104   1.354       .  A
C66         C112   1.483       .  S
N67          N74   1.319       .  A
N67          N97   1.321       .  A
N67       Co1324   2.070       .  S
N68          N86   1.319       .  A
N68         N104   1.324       .  A
N69          C98   1.354       .  A
N69          N79   1.327       .  A
H70          C95   1.082       .  S
N71          N92   1.326       .  A
N71        N1900   1.319       .  A
N72          N90   1.320       .  A
N72          N77   1.320       .  A
C73          N77   1.345       .  A
C73         C101   1.459       .  S
C73         C213   1.463       .  S
N74          C89   1.342       .  A
N74        Co708   2.085   1_545  S
C75         N103   1.334       .  A
C75          C78   1.453       .  S
C75         H109   1.081       .  S
C78          N99   1.356       .  A
C78         C224   1.480       .  S
N79          N85   1.319       .  A
N79       Co1287   2.095   1_455  S
N80         C106   1.349       .  A
N80        N1918   1.322       .  A
N80         Co96   2.112       .  S
N81          C95   1.342       .  A
N82         N110   1.326       .  A
N82        N1916   1.322   1_445  A
N82        Co100   2.090       .  S
H83         C106   1.081       .  S
H84         C101   1.082       .  S
N85        Co677   2.083       .  S
N86        Co100   2.080       .  S
N87          N99   1.327       .  A
N87         N103   1.321       .  A
N87         Co96   2.099       .  S
C88         N704   1.352   1_545  A
C88        C1326   1.463       .  S
C89         C108   1.462       .  S
C89          H93   1.081       .  S
N90         C101   1.341       .  A
N90        Co100   2.075       .  S
N92         C700   1.352       .  A
C94        N1946   1.350       .  A
C94         C106   1.469       .  S
Co96        N686   2.085       .  S
Co96       Cl719   2.457       .  S
N97         C108   1.345       .  A
C98         C126   1.488       .  S
Co100      N1291   2.070   1_455  S
Co100     Cl1331   2.447   1_455  S
C102       C1312   1.463   1_455  S
Cl107      Co675   2.445   1_545  S
Cl107     Co1289   2.455       .  S
Cl107      Co708   2.457   1_545  S
Cl107     Co1324   2.447       .  S
C108        C241   1.475       .  S
N110       C1930   1.350   1_445  A
C111        H118   1.082       .  S
C111        C112   1.403       .  A
C111        C116   1.406       .  A
C112        C113   1.404       .  A
C113        C114   1.397       .  A
C113        N120   1.437       .  S
C114        H119   1.067       .  S
C114        C115   1.416       .  A
C115        C116   1.433       .  A
C116        N117   1.437       .  S
N117        O121   1.262       .  A
N117        O122   1.261       .  A
N120        O123   1.263       .  A
N120        O124   1.263       .  A
C125        H132   1.083       .  S
C125        C126   1.398       .  A
C125        C130   1.401       .  A
C126        C127   1.414       .  A
C127        C128   1.406       .  A
C127        N134   1.437       .  S
C128        H133   1.078       .  S
C128        C129   1.416       .  A
C129        C130   1.431       .  A
C130        N131   1.430       .  S
N131        O135   1.261       .  A
N131        O136   1.262       .  A
N134        O137   1.263       .  A
N134        O138   1.263       .  A
C139        H146   1.083       .  S
C139        C140   1.423       .  A
C139        C144   1.404       .  A
C140        C141   1.438       .  A
C141        C142   1.401       .  A
C141        N148   1.433       .  S
C142        H147   1.085       .  S
C142        C143   1.395       .  A
C143        C144   1.407       .  A
C144        N145   1.444       .  S
N145        O150   1.262       .  A
N145        O761   1.263       .  A
N148        O151   1.263       .  A
N148        O152   1.261       .  A
O149        N757   1.263       .  A
C153        H160   1.084       .  S
C153        C154   1.390       .  A
C153        C158   1.397       .  A
C154        C155   1.412       .  A
C155        C156   1.405       .  A
C155        N162   1.438       .  S
C156        H161   1.084       .  S
C156        C157   1.413       .  A
C157        C158   1.437       .  A
C158        N159   1.439       .  S
N159        O163   1.261       .  A
N159        O164   1.260       .  A
N162        O165   1.263       .  A
N162        O166   1.263       .  A
C167        H174   1.066       .  S
C167        C168   1.423       .  A
C167        C172   1.406       .  A
C168        C169   1.444       .  A
C169        C170   1.398       .  A
C169        N176   1.432       .  S
C170        H175   1.081       .  S
C170        C171   1.393       .  A
C171        C172   1.410       .  A
C172        N173   1.435       .  S
N173        O177   1.262       .  A
N173        O178   1.263       .  A
N176        O179   1.263       .  A
N176        O180   1.262       .  A
C181        H188   1.083       .  S
C181        C182   1.426       .  A
C181        C186   1.405       .  A
C182        C183   1.444       .  A
C183        C184   1.404       .  A
C183        N190   1.437       .  S
C184        H189   1.085       .  S
C184        C185   1.392       .  A
C185        C186   1.405       .  A
C186        N187   1.444       .  S
N187        O191   1.263       .  A
N187        O192   1.262       .  A
N190        O193   1.261       .  A
N190        O194   1.263       .  A
C195        H202   1.076       .  S
C195        C196   1.411       .  A
C195        C200   1.395       .  A
C196        C197   1.425       .  A
C197        C198   1.399       .  A
C197        N204   1.425       .  S
C198        H203   1.078       .  S
C198        C199   1.415       .  A
C199        C200   1.425       .  A
C200        N201   1.431       .  S
N201        O205   1.262       .  A
N201        O206   1.263       .  A
N204        O207   1.262       .  A
N204        O208   1.262       .  A
C209        H216   1.079       .  S
C209        C210   1.426       .  A
C209        C214   1.397       .  A
C210        C211   1.446       .  A
C211        C212   1.403       .  A
C211        N218   1.435       .  S
C212        H217   1.085       .  S
C212        C213   1.388       .  A
C213        C214   1.403       .  A
C214        N215   1.440       .  S
N215        O219   1.263       .  A
N215        O220   1.263       .  A
N218        O221   1.260       .  A
N218        O222   1.262       .  A
C223        H230   1.084       .  S
C223        C224   1.397       .  A
C223        C228   1.404       .  A
C224        C225   1.410       .  A
C225        C226   1.398       .  A
C225        N232   1.436       .  S
C226        H231   1.079       .  S
C226        C227   1.416       .  A
C227        C228   1.442       .  A
C228        N229   1.444       .  S
N229        O233   1.262       .  A
N229        O234   1.259       .  A
N232        O235   1.263       .  A
N232        O236   1.262       .  A
C237        H244   1.072       .  S
C237        C238   1.413       .  A
C237        C242   1.393       .  A
C238        C239   1.429       .  A
C239        C240   1.404       .  A
C239        N246   1.432       .  S
C240        H245   1.083       .  S
C240        C241   1.399       .  A
C241        C242   1.406       .  A
C242        N243   1.432       .  S
N243        O247   1.262       .  A
N243        O248   1.262       .  A
N246        O249   1.263       .  A
N246        O250   1.262       .  A
C251        H258   1.084       .  S
C251        C256   1.398       .  A
C251        C558   1.391   1_554  A
C252        C253   1.413       .  A
C252        C557   1.391       .  A
C253        C254   1.402       .  A
C253        N260   1.433       .  S
C254        H259   1.083       .  S
C254        C255   1.414       .  A
C255        C307   1.569       .  S
C255        C562   1.444       .  A
C256        C561   1.444   1_554  A
C256        N257   1.434       .  S
N257        O261   1.260       .  A
N257        O262   1.260       .  A
N260        O263   1.263       .  A
N260        O264   1.263       .  A
C265        H272   1.079       .  S
C265        C266   1.421       .  A
C265        C270   1.409       .  A
C266        C307   1.583       .  S
C266        C573   1.431       .  A
C267        C572   1.431   1_554  A
C267        C574   1.396   1_554  A
C267        N274   1.427       .  S
C268        H579   1.084       .  S
C268        C269   1.392       .  A
C268        C573   1.396       .  A
C269        C270   1.411       .  A
C270        N271   1.439       .  S
N271        O275   1.262       .  A
N271        O276   1.263       .  A
H273        C574   1.084       .  S
N274        O277   1.262       .  A
N274        O278   1.262       .  A
C279        H286   1.075       .  S
C279        C280   1.421       .  A
C279        C284   1.409       .  A
C280        C307   1.581       .  S
C280        C281   1.436       .  A
C281        C282   1.398       .  A
C281        N288   1.434       .  S
C282        H287   1.083       .  S
C282        C283   1.396       .  A
C283        C284   1.411       .  A
C284        N285   1.438       .  S
N285        O290   1.262       .  A
N285        O595   1.263       .  A
N288        O292   1.261       .  A
N288        O597   1.263       .  A
O289        N591   1.263       .  A
O291        N594   1.263       .  A
C293        H300   1.075       .  S
C293        C294   1.409       .  A
C293        C298   1.402       .  A
C294        C295   1.428       .  A
C295        C296   1.393       .  A
C295        N302   1.436       .  S
C296        H301   1.072       .  S
C296        C297   1.400       .  A
C297        C298   1.440       .  A
C298        N299   1.443       .  S
N299        O303   1.264       .  A
N299        O304   1.261       .  A
N302        O305   1.263       .  A
N302        O306   1.261       .  A
C307        C600   1.556       .  S
C308        C516   1.591       .  S
C308        C533   1.569       .  S
C308        C544   1.567       .  S
C308        C603   1.586       .  S
C309        C463   1.563       .  S
C309        C474   1.597       .  S
C309        C488   1.601       .  S
C309        C502   1.572       .  S
C310        C421   1.567       .  S
C310        C435   1.577       .  S
C310        C446   1.573       .  S
C310        C505   1.581       .  S
C311        N329   1.353       .  A
C311        C348   1.460       .  S
C311        C589   1.487       .  S
N312        N329   1.327       .  A
N312        N334   1.319       .  A
N312       Co961   2.092   1_545  S
C313        N338   1.336       .  A
C313        C351   1.455       .  S
C313        H358   1.080       .  S
H314        C355   1.082       .  S
C315        N339   1.340       .  A
C315        C931   1.458       .  S
C315        H344   1.081       .  S
Co316      N1558   2.085   1_455  S
Co316       N324   2.075       .  S
Co316       N332   2.093       .  S
Co316     Cl1584   2.450   1_455  S
N317        C355   1.339       .  A
N317        N324   1.321       .  A
N317       Co318   2.081       .  S
Co318       N321   2.099       .  S
Co318       N338   2.070       .  S
Co318       N937   2.072   1_545  S
Co318     Cl1584   2.449   1_455  S
C319       N1581   1.354       .  A
C319        C927   1.458   1_545  S
C319        C394   1.477       .  S
N320        N327   1.320       .  A
N320        N350   1.325       .  A
N320       Co353   2.083       .  S
N321       N2175   1.319   1_445  A
N321        N357   1.329       .  A
N322        C351   1.356       .  A
N322        N332   1.324       .  A
H323        C348   1.081       .  S
N324        N345   1.322       .  A
N325        N343   1.317       .  A
N325        N330   1.323       .  A
N325       Co930   2.072       .  S
C326        N330   1.348       .  A
C326        C354   1.467       .  S
C326        C477   1.486       .  S
N327        C342   1.339       .  A
N327       Co349   2.088       .  S
C328        N356   1.344       .  A
C328       C2167   1.465   1_445  S
C328        H362   1.081       .  S
C331        N352   1.353       .  A
C331       C2164   1.465       .  S
C331        C400   1.485       .  S
N332        N338   1.320       .  A
N333        C359   1.339       .  A
N333        N335   1.320       .  A
N333       Co349   2.087       .  S
N334        C348   1.339       .  A
N334      Co1540   2.085       .  S
N335        N363   1.324       .  A
N335       Co353   2.079       .  S
H337        C354   1.080   1_655  S
N339       N2157   1.319       .  A
N339       Co353   2.083       .  S
N340        N352   1.330       .  A
N340       N2192   1.321       .  A
C341        N345   1.344       .  A
C341        C355   1.461       .  S
C341        C460   1.471       .  S
C342        C361   1.458       .  S
C342        H346   1.081       .  S
N343        C354   1.339       .  A
N343      Co1577   2.084   1_455  S
C347        N363   1.348       .  A
C347        C359   1.465       .  S
C347        C575   1.479       .  S
Co349       N924   2.092       .  S
Co349      Cl972   2.455       .  S
N350        C361   1.350       .  A
C351        C558   1.482       .  S
Co353      N1567   2.084       .  S
Co353      Cl972   2.450       .  S
N356       N2176   1.321   1_445  A
N357       C1543   1.354   1_455  A
Cl360     Co1540   2.450       .  S
Cl360     Co1542   2.449       .  S
Cl360      Co961   2.455   1_545  S
Cl360      Co965   2.450   1_545  S
C361        C491   1.470       .  S
C364        N382   1.347       .  A
C364        C401   1.463       .  S
C364        C449   1.470       .  S
N365        N382   1.323       .  A
N365        N387   1.321       .  A
N365       Co402   2.085       .  S
C366        N391   1.340       .  A
C366        C404   1.462       .  S
C366        H411   1.080       .  S
H367        C408   1.081       .  S
C368        N392   1.338       .  A
C368        C372   1.458       .  S
C368        H397   1.080       .  S
Co369       N387   2.086       .  S
Co369       N377   2.092       .  S
Co369       N409   2.068       .  S
Co369      N1609   2.095       .  S
Co369     Cl1025   2.445       .  S
N370        C408   1.345       .  A
N370       N2213   1.319   1_445  A
N370       Co371   2.089       .  S
Co371       N374   2.087       .  S
Co371      N1003   2.083   1_545  S
Co371       N378   2.074       .  S
Co371     Cl1637   2.455   1_455  S
C372        N410   1.354       .  A
C372        C418   1.483       .  S
N373        N380   1.319       .  A
N373        N403   1.321       .  A
N373      Co1630   2.070       .  S
N374        N392   1.319       .  A
N374        N410   1.324       .  A
N375        C404   1.354       .  A
N375        N385   1.327       .  A
H376        C401   1.082       .  S
N377       N2206   1.319       .  A
N377        N398   1.326       .  A
N378        N396   1.320       .  A
N378        N383   1.320       .  A
C379        N383   1.345       .  A
C379        C407   1.459       .  S
C379        C519   1.463       .  S
N380        C395   1.342       .  A
N380      Co1014   2.085   1_545  S
C381        N409   1.334       .  A
C381        C384   1.453       .  S
C381        H415   1.081       .  S
C384        N405   1.356       .  A
C384        C530   1.480       .  S
N385        N391   1.319       .  A
N385      Co1593   2.095   1_455  S
N386        C412   1.349       .  A
N386       N2224   1.322       .  A
N386       Co402   2.112       .  S
N387        C401   1.342       .  A
N388       N2222   1.322   1_445  A
N388        N416   1.326       .  A
N388       Co406   2.090       .  S
H389        C412   1.081       .  S
H390        C407   1.082       .  S
N391       Co983   2.083       .  S
N392       Co406   2.080       .  S
N393        N405   1.327       .  A
N393        N409   1.321       .  A
N393       Co402   2.099       .  S
C394       N1010   1.352   1_545  A
C394       C1632   1.463       .  S
C395        C414   1.462       .  S
C395        H399   1.081       .  S
N396        C407   1.341       .  A
N396       Co406   2.075       .  S
N398       C1006   1.352       .  A
C400       N2252   1.350       .  A
C400        C412   1.469       .  S
Co402       N992   2.085       .  S
Co402     Cl1025   2.457       .  S
N403        C414   1.345       .  A
C404        C432   1.488       .  S
Co406      N1597   2.070   1_455  S
Co406     Cl1637   2.447   1_455  S
C408       C1618   1.463   1_455  S
Cl413      Co981   2.445   1_545  S
Cl413     Co1595   2.455       .  S
Cl413     Co1014   2.457   1_545  S
Cl413     Co1630   2.447       .  S
C414        C547   1.475       .  S
N416       C2236   1.350   1_445  A
C417        H424   1.082       .  S
C417        C418   1.403       .  A
C417        C422   1.406       .  A
C418        C419   1.404       .  A
C419        C420   1.397       .  A
C419        N426   1.437       .  S
C420        H425   1.067       .  S
C420        C421   1.416       .  A
C421        C422   1.433       .  A
C422        N423   1.437       .  S
N423        O427   1.262       .  A
N423        O428   1.261       .  A
N426        O429   1.263       .  A
N426        O430   1.263       .  A
C431        H438   1.083       .  S
C431        C432   1.398       .  A
C431        C436   1.401       .  A
C432        C433   1.414       .  A
C433        C434   1.406       .  A
C433        N440   1.437       .  S
C434        H439   1.078       .  S
C434        C435   1.416       .  A
C435        C436   1.431       .  A
C436        N437   1.430       .  S
N437        O441   1.261       .  A
N437        O442   1.262       .  A
N440        O443   1.263       .  A
N440        O444   1.263       .  A
C445        H452   1.083       .  S
C445        C446   1.423       .  A
C445        C450   1.404       .  A
C446        C447   1.438       .  A
C447        C448   1.401       .  A
C447        N454   1.433       .  S
C448        H453   1.085       .  S
C448        C449   1.395       .  A
C449        C450   1.407       .  A
C450        N451   1.444       .  S
N451       O1067   1.263       .  A
N451        O456   1.262       .  A
N454        O457   1.263       .  A
N454        O458   1.261       .  A
O455       N1063   1.263       .  A
C459        H466   1.084       .  S
C459        C460   1.390       .  A
C459        C464   1.397       .  A
C460        C461   1.412       .  A
C461        C462   1.405       .  A
C461        N468   1.438       .  S
C462        H467   1.084       .  S
C462        C463   1.413       .  A
C463        C464   1.437       .  A
C464        N465   1.439       .  S
N465        O469   1.261       .  A
N465        O470   1.260       .  A
N468        O471   1.263       .  A
N468        O472   1.263       .  A
C473        H480   1.066       .  S
C473        C474   1.423       .  A
C473        C478   1.406       .  A
C474        C475   1.444       .  A
C475        C476   1.398       .  A
C475        N482   1.432       .  S
C476        H481   1.081       .  S
C476        C477   1.393       .  A
C477        C478   1.410       .  A
C478        N479   1.435       .  S
N479        O483   1.262       .  A
N479        O484   1.263       .  A
N482        O485   1.263       .  A
N482        O486   1.262       .  A
C487        H494   1.083       .  S
C487        C488   1.426       .  A
C487        C492   1.405       .  A
C488        C489   1.444       .  A
C489        C490   1.404       .  A
C489        N496   1.437       .  S
C490        H495   1.085       .  S
C490        C491   1.392       .  A
C491        C492   1.405       .  A
C492        N493   1.444       .  S
N493        O497   1.263       .  A
N493        O498   1.262       .  A
N496        O499   1.261       .  A
N496        O500   1.263       .  A
C501        H508   1.076       .  S
C501        C502   1.411       .  A
C501        C506   1.395       .  A
C502        C503   1.425       .  A
C503        C504   1.399       .  A
C503        N510   1.425       .  S
C504        H509   1.078       .  S
C504        C505   1.415       .  A
C505        C506   1.425       .  A
C506        N507   1.431       .  S
N507        O511   1.262       .  A
N507        O512   1.263       .  A
N510        O513   1.262       .  A
N510        O514   1.262       .  A
C515        H522   1.079       .  S
C515        C516   1.426       .  A
C515        C520   1.397       .  A
C516        C517   1.446       .  A
C517        C518   1.403       .  A
C517        N524   1.435       .  S
C518        H523   1.085       .  S
C518        C519   1.388       .  A
C519        C520   1.403       .  A
C520        N521   1.440       .  S
N521        O525   1.263       .  A
N521        O526   1.263       .  A
N524        O527   1.260       .  A
N524        O528   1.262       .  A
C529        H536   1.084       .  S
C529        C530   1.397       .  A
C529        C534   1.404       .  A
C530        C531   1.410       .  A
C531        C532   1.398       .  A
C531        N538   1.436       .  S
C532        H537   1.079       .  S
C532        C533   1.416       .  A
C533        C534   1.442       .  A
C534        N535   1.444       .  S
N535        O539   1.262       .  A
N535        O540   1.259       .  A
N538        O541   1.263       .  A
N538        O542   1.262       .  A
C543        H550   1.072       .  S
C543        C544   1.413       .  A
C543        C548   1.393       .  A
C544        C545   1.429       .  A
C545        C546   1.404       .  A
C545        N552   1.432       .  S
C546        H551   1.083       .  S
C546        C547   1.399       .  A
C547        C548   1.406       .  A
C548        N549   1.432       .  S
N549        O553   1.262       .  A
N549        O554   1.262       .  A
N552        O555   1.263       .  A
N552        O556   1.262       .  A
C557        H564   1.084       .  S
C557        C562   1.398       .  A
C558        C559   1.413       .  A
C559        C560   1.402       .  A
C559        N566   1.433       .  S
C560        H565   1.083       .  S
C560        C561   1.414       .  A
C562        N563   1.434       .  S
N563        O567   1.260       .  A
N563        O568   1.260       .  A
N566        O569   1.263       .  A
N566        O570   1.263       .  A
C571        H578   1.079       .  S
C571        C572   1.421       .  A
C571        C576   1.409       .  A
C573        N580   1.427       .  S
C574        C575   1.392       .  A
C575        C576   1.411       .  A
C576        N577   1.439       .  S
N577        O581   1.262       .  A
N577        O582   1.263       .  A
N580        O583   1.262       .  A
N580        O584   1.262       .  A
C585        H592   1.075       .  S
C585        C586   1.421       .  A
C585        C590   1.409       .  A
C586        C587   1.436   1_556  A
C587        C588   1.398   1_554  A
C587        N594   1.434       .  S
C588        H593   1.083   1_556  S
C588        C589   1.396       .  A
C589        C590   1.411       .  A
C590        N591   1.438       .  S
N591        O596   1.262       .  A
N594        O598   1.261       .  A
C599        H606   1.075       .  S
C599        C600   1.409       .  A
C599        C604   1.402       .  A
C600        C601   1.428       .  A
C601        C602   1.393       .  A
C601        N608   1.436       .  S
C602        H607   1.072       .  S
C602        C603   1.400       .  A
C603        C604   1.440       .  A
C604        N605   1.443       .  S
N605        O609   1.264       .  A
N605        O610   1.261       .  A
N608        O611   1.263       .  A
N608        O612   1.261       .  A
C613       C1173   1.569   1_554  S
C613       C1184   1.583   1_554  S
C613       C1198   1.581   1_554  S
C613        C906   1.556       .  S
C614        C822   1.591       .  S
C614        C839   1.569       .  S
C614        C850   1.567       .  S
C614        C909   1.586       .  S
C615        C769   1.563       .  S
C615        C780   1.597       .  S
C615        C794   1.601       .  S
C615        C808   1.572       .  S
C616        C727   1.567       .  S
C616        C741   1.577       .  S
C616        C752   1.573       .  S
C616        C811   1.581       .  S
C617        N635   1.353       .  A
C617        C654   1.460       .  S
C617        C895   1.487       .  S
N618        N635   1.327       .  A
N618        N640   1.319       .  A
C619        N644   1.336       .  A
C619        C657   1.455       .  S
C619        H664   1.080       .  S
H620        C661   1.082       .  S
C621        N645   1.340       .  A
C621        H650   1.081       .  S
Co622      N1864   2.085   1_455  S
Co622       N630   2.075       .  S
Co622       N968   2.100       .  S
Co622       N638   2.093       .  S
Co622     Cl1890   2.450   1_455  S
N623        C661   1.339       .  A
N623        N630   1.321       .  A
N623       Co624   2.081       .  S
Co624       N627   2.099       .  S
Co624       N644   2.070       .  S
Co624     Cl1890   2.449   1_455  S
C625       N1887   1.354       .  A
C625        C700   1.477       .  S
N626        N633   1.320       .  A
N626        N656   1.325       .  A
N626       Co659   2.083       .  S
N627       N1257   1.319   1_455  A
N627        N663   1.329       .  A
N628        C657   1.356       .  A
N628        N638   1.324       .  A
H629        C654   1.081       .  S
N630        N651   1.322       .  A
N631        N649   1.317       .  A
N631        N636   1.323       .  A
C632        N636   1.348       .  A
C632        C660   1.467       .  S
C632        C783   1.486       .  S
N633        C648   1.339       .  A
N633       Co655   2.088       .  S
C634        N662   1.344       .  A
C634       C1249   1.465   1_455  S
C634        H668   1.081       .  S
C637        N658   1.353       .  A
C637       C1246   1.465   1_565  S
C637        C706   1.485       .  S
N638        N644   1.320       .  A
N639        C665   1.339       .  A
N639        N641   1.320       .  A
N639       Co655   2.087       .  S
N640        C654   1.339       .  A
N640      Co1846   2.085       .  S
N641        N669   1.324       .  A
N641       Co659   2.079       .  S
H642        C971   1.081   1_554  S
H643        C660   1.080   1_655  S
N645       N1239   1.319   1_565  A
N645       Co659   2.083       .  S
N646        N658   1.330       .  A
N646       N1274   1.321   1_565  A
N646       Co961   2.102   1_554  S
C647        N651   1.344       .  A
C647        C661   1.461       .  S
C647        C766   1.471       .  S
C648        C667   1.458       .  S
C648        H652   1.081       .  S
N649        C660   1.339       .  A
N649      Co1883   2.084   1_455  S
C653        N669   1.348       .  A
C653        C665   1.465       .  S
C653        C881   1.479       .  S
Co655       N952   2.102       .  S
N656        C667   1.350       .  A
C657        C864   1.482       .  S
Co659      N1873   2.084       .  S
N662       N1258   1.321   1_455  A
N662       Co928   2.100   1_554  S
N663       C1849   1.354   1_455  A
C665        H948   1.081       .  S
Cl666     Co1846   2.450       .  S
Cl666     Co1848   2.449       .  S
C667        C797   1.470       .  S
C670        N688   1.347       .  A
C670        C707   1.463       .  S
C670        C755   1.470       .  S
N671        N688   1.323       .  A
N671        N693   1.321       .  A
N671       Co708   2.085       .  S
C672        N697   1.340       .  A
C672        C710   1.462       .  S
C672        H717   1.080       .  S
H673        C714   1.081       .  S
C674        N698   1.338       .  A
C674        C678   1.458       .  S
C674        H703   1.080       .  S
Co675       N693   2.086       .  S
Co675       N683   2.092       .  S
Co675       N715   2.068       .  S
Co675      N1915   2.095       .  S
N676        C714   1.345       .  A
N676       N1295   1.319   1_455  A
N676       Co677   2.089       .  S
Co677       N680   2.087       .  S
Co677       N684   2.074       .  S
Co677     Cl1943   2.455   1_455  S
C678        N716   1.354       .  A
C678        C724   1.483       .  S
N679        N686   1.319       .  A
N679        N709   1.321       .  A
N679      Co1936   2.070       .  S
N680        N698   1.319       .  A
N680        N716   1.324       .  A
N681        C710   1.354       .  A
N681        N691   1.327       .  A
H682        C707   1.082       .  S
N683       N1288   1.319   1_565  A
N683        N704   1.326       .  A
N684        N702   1.320       .  A
N684        N689   1.320       .  A
C685        N689   1.345       .  A
C685        C713   1.459       .  S
C685        C825   1.463       .  S
N686        C701   1.342       .  A
C687        N715   1.334       .  A
C687        C690   1.453       .  S
C687        H721   1.081       .  S
C690        N711   1.356       .  A
C690        C836   1.480       .  S
N691        N697   1.319       .  A
N691      Co1899   2.095   1_455  S
N692        C718   1.349       .  A
N692       N1306   1.322   1_565  A
N692       Co708   2.112       .  S
N693        C707   1.342       .  A
N694       N1304   1.322   1_455  A
N694        N722   1.326       .  A
N694       Co712   2.090       .  S
H695        C718   1.081       .  S
H696        C713   1.082       .  S
N698       Co712   2.080       .  S
N699        N711   1.327       .  A
N699        N715   1.321       .  A
N699       Co708   2.099       .  S
C700       C1938   1.463       .  S
C701        C720   1.462       .  S
C701        H705   1.081       .  S
N702        C713   1.341       .  A
N702       Co712   2.075       .  S
C706       N1334   1.350   1_565  A
C706        C718   1.469       .  S
N709        C720   1.345       .  A
C710        C738   1.488       .  S
Co712      N1903   2.070   1_455  S
Co712     Cl1943   2.447   1_455  S
C714       C1924   1.463   1_455  S
Cl719     Co1901   2.455       .  S
Cl719     Co1936   2.447       .  S
C720        C853   1.475       .  S
N722       C1318   1.350   1_455  A
C723        H730   1.082       .  S
C723        C724   1.403       .  A
C723        C728   1.406       .  A
C724        C725   1.404       .  A
C725        C726   1.397       .  A
C725        N732   1.437       .  S
C726        H731   1.067       .  S
C726        C727   1.416       .  A
C727        C728   1.433       .  A
C728        N729   1.437       .  S
N729        O733   1.262       .  A
N729        O734   1.261       .  A
N732        O735   1.263       .  A
N732        O736   1.263       .  A
C737        H744   1.083       .  S
C737        C738   1.398       .  A
C737        C742   1.401       .  A
C738        C739   1.414       .  A
C739        C740   1.406       .  A
C739        N746   1.437       .  S
C740        H745   1.078       .  S
C740        C741   1.416       .  A
C741        C742   1.431       .  A
C742        N743   1.430       .  S
N743        O747   1.261       .  A
N743        O748   1.262       .  A
N746        O749   1.263       .  A
N746        O750   1.263       .  A
C751        H758   1.083       .  S
C751        C752   1.423       .  A
C751        C756   1.404       .  A
C752        C753   1.438       .  A
C753        C754   1.401       .  A
C753        N760   1.433       .  S
C754        H759   1.085       .  S
C754        C755   1.395       .  A
C755        C756   1.407       .  A
C756        N757   1.444       .  S
N757        O762   1.262       .  A
N760        O763   1.263       .  A
N760        O764   1.261       .  A
C765        H772   1.084       .  S
C765        C766   1.390       .  A
C765        C770   1.397       .  A
C766        C767   1.412       .  A
C767        C768   1.405       .  A
C767        N774   1.438       .  S
C768        H773   1.084       .  S
C768        C769   1.413       .  A
C769        C770   1.437       .  A
C770        N771   1.439       .  S
N771        O775   1.261       .  A
N771        O776   1.260       .  A
N774        O777   1.263       .  A
N774        O778   1.263       .  A
C779        H786   1.066       .  S
C779        C780   1.423       .  A
C779        C784   1.406       .  A
C780        C781   1.444       .  A
C781        C782   1.398       .  A
C781        N788   1.432       .  S
C782        H787   1.081       .  S
C782        C783   1.393       .  A
C783        C784   1.410       .  A
C784        N785   1.435       .  S
N785        O789   1.262       .  A
N785        O790   1.263       .  A
N788        O791   1.263       .  A
N788        O792   1.262       .  A
C793        H800   1.083       .  S
C793        C794   1.426       .  A
C793        C798   1.405       .  A
C794        C795   1.444       .  A
C795        C796   1.404       .  A
C795        N802   1.437       .  S
C796        H801   1.085       .  S
C796        C797   1.392       .  A
C797        C798   1.405       .  A
C798        N799   1.444       .  S
N799        O803   1.263       .  A
N799        O804   1.262   1_565  A
N802        O805   1.261       .  A
N802        O806   1.263       .  A
C807        H814   1.076       .  S
C807        C808   1.411       .  A
C807        C812   1.395       .  A
C808        C809   1.425       .  A
C809        C810   1.399       .  A
C809        N816   1.425       .  S
C810        H815   1.078       .  S
C810        C811   1.415       .  A
C811        C812   1.425       .  A
C812        N813   1.431       .  S
N813        O817   1.262       .  A
N813        O818   1.263       .  A
N816        O819   1.262       .  A
N816        O820   1.262       .  A
C821        H828   1.079       .  S
C821        C822   1.426       .  A
C821        C826   1.397       .  A
C822        C823   1.446       .  A
C823        C824   1.403       .  A
C823        N830   1.435       .  S
C824        H829   1.085       .  S
C824        C825   1.388       .  A
C825        C826   1.403       .  A
C826        N827   1.440       .  S
N827        O831   1.263       .  A
N827        O832   1.263       .  A
N830        O833   1.260       .  A
N830        O834   1.262       .  A
C835        H842   1.084       .  S
C835        C836   1.397       .  A
C835        C840   1.404       .  A
C836        C837   1.410       .  A
C837        C838   1.398       .  A
C837        N844   1.436       .  S
C838        H843   1.079       .  S
C838        C839   1.416       .  A
C839        C840   1.442       .  A
C840        N841   1.444       .  S
N841        O845   1.262       .  A
N841        O846   1.259       .  A
N844        O847   1.263       .  A
N844        O848   1.262       .  A
C849        H856   1.072       .  S
C849        C850   1.413       .  A
C849        C854   1.393       .  A
C850        C851   1.429       .  A
C851        C852   1.404       .  A
C851        N858   1.432       .  S
C852        H857   1.083       .  S
C852        C853   1.399       .  A
C853        C854   1.406       .  A
C854        N855   1.432       .  S
N855        O859   1.262       .  A
N855        O860   1.262       .  A
N858        O861   1.263       .  A
N858        O862   1.262       .  A
C863        H870   1.084       .  S
C863       C1170   1.391   1_554  A
C863        C868   1.398       .  A
C864       C1169   1.391       .  A
C864        C865   1.413       .  A
C865        C866   1.402       .  A
C865        N872   1.433       .  S
C866        H871   1.083       .  S
C866        C867   1.414       .  A
C867        C919   1.569       .  S
C867       C1174   1.444       .  A
C868       C1173   1.444   1_554  A
C868        N869   1.434       .  S
N869        O873   1.260       .  A
N869        O874   1.260       .  A
N872        O875   1.263       .  A
N872        O876   1.263       .  A
C877        H884   1.079       .  S
C877        C878   1.421       .  A
C877        C882   1.409       .  A
C878        C919   1.583       .  S
C878       C1185   1.431       .  A
C879       C1184   1.431   1_554  A
C879       C1186   1.396   1_554  A
C879        N886   1.427       .  S
C880       H1191   1.084       .  S
C880       C1185   1.396       .  A
C880        C881   1.392       .  A
C881        C882   1.411       .  A
C882        N883   1.439       .  S
N883        O887   1.262       .  A
N883        O888   1.263       .  A
H885       C1186   1.084       .  S
N886        O889   1.262       .  A
N886        O890   1.262       .  A
C891        H898   1.075       .  S
C891        C892   1.421       .  A
C891        C896   1.409       .  A
C892        C919   1.581       .  S
C892        C893   1.436       .  A
C893        C894   1.398       .  A
C893        N900   1.434       .  S
C894        H899   1.083       .  S
C894        C895   1.396       .  A
C895        C896   1.411       .  A
C896        N897   1.438       .  S
N897       O1207   1.263       .  A
N897        O902   1.262       .  A
N900       O1209   1.263       .  A
N900        O904   1.261       .  A
O901       N1203   1.263       .  A
O903       N1206   1.263       .  A
C905        H912   1.075       .  S
C905        C906   1.409       .  A
C905        C910   1.402       .  A
C906        C907   1.428       .  A
C907        C908   1.393       .  A
C907        N914   1.436       .  S
C908        H913   1.072       .  S
C908        C909   1.400       .  A
C909        C910   1.440       .  A
C910        N911   1.443       .  S
N911        O915   1.264       .  A
N911        O916   1.261       .  A
N914        O917   1.263       .  A
N914        O918   1.261       .  A
C919       C1212   1.556       .  S
C920       C1128   1.591       .  S
C920       C1145   1.569       .  S
C920       C1156   1.567       .  S
C920       C1215   1.586       .  S
C921       C1075   1.563       .  S
C921       C1086   1.597       .  S
C921       C1100   1.601       .  S
C921       C1114   1.572       .  S
C922       C1033   1.567       .  S
C922       C1047   1.577       .  S
C922       C1058   1.573       .  S
C922       C1117   1.581       .  S
C923        N941   1.353       .  A
C923        C960   1.460       .  S
C923       C1201   1.487       .  S
N924        N941   1.327       .  A
N924        N946   1.319       .  A
C925        N950   1.336       .  A
C925        C963   1.455       .  S
C925        H970   1.080       .  S
H926        C967   1.082       .  S
C927        N951   1.340       .  A
C927        H956   1.081       .  S
Co928      N2170   2.085   1_455  S
Co928       N936   2.075       .  S
Co928       N944   2.093       .  S
Co928     Cl2196   2.450   1_455  S
N929        C967   1.339       .  A
N929        N936   1.321       .  A
N929       Co930   2.081       .  S
Co930       N933   2.099       .  S
Co930       N950   2.070       .  S
Co930     Cl2196   2.449   1_455  S
C931       N2193   1.354       .  A
C931       C1006   1.477       .  S
N932        N939   1.320       .  A
N932        N962   1.325       .  A
N932       Co965   2.083       .  S
N933       N1563   1.319   1_455  A
N933        N969   1.329       .  A
N934        C963   1.356       .  A
N934        N944   1.324       .  A
H935        C960   1.081       .  S
N936        N957   1.322       .  A
N937        N955   1.317       .  A
N937        N942   1.323       .  A
C938        N942   1.348       .  A
C938        C966   1.467       .  S
C938       C1089   1.486       .  S
N939        C954   1.339       .  A
N939       Co961   2.088       .  S
C940        N968   1.344       .  A
C940       C1555   1.465   1_455  S
C940        H974   1.081       .  S
C943        N964   1.353       .  A
C943       C1552   1.465   1_565  S
C943       C1012   1.485       .  S
N944        N950   1.320       .  A
N945        C971   1.339       .  A
N945        N947   1.320       .  A
N945       Co961   2.087       .  S
N946        C960   1.339       .  A
N946      Co2152   2.085       .  S
N947        N975   1.324       .  A
N947       Co965   2.079       .  S
H949        C966   1.080   1_655  S
N951       N1545   1.319   1_565  A
N951       Co965   2.083       .  S
N952        N964   1.330       .  A
N952       N1580   1.321   1_565  A
C953        N957   1.344       .  A
C953        C967   1.461       .  S
C953       C1072   1.471       .  S
C954        C973   1.458       .  S
C954        H958   1.081       .  S
N955        C966   1.339       .  A
N955      Co2189   2.084   1_455  S
C959        N975   1.348       .  A
C959        C971   1.465       .  S
C959       C1187   1.479       .  S
N962        C973   1.350       .  A
C963       C1170   1.482       .  S
Co965      N2179   2.084       .  S
N968       N1564   1.321   1_455  A
N969       C2155   1.354   1_455  A
Cl972     Co2152   2.450       .  S
Cl972     Co2154   2.449       .  S
C973       C1103   1.470       .  S
C976        N994   1.347       .  A
C976       C1013   1.463       .  S
C976       C1061   1.470       .  S
N977        N994   1.323       .  A
N977        N999   1.321       .  A
N977      Co1014   2.085       .  S
C978       N1003   1.340       .  A
C978       C1016   1.462       .  S
C978       H1023   1.080       .  S
H979       C1020   1.081       .  S
C980       N1004   1.338       .  A
C980        C984   1.458       .  S
C980       H1009   1.080       .  S
Co981       N999   2.086       .  S
Co981       N989   2.092       .  S
Co981      N1021   2.068       .  S
Co981      N2221   2.095       .  S
N982       C1020   1.345       .  A
N982       N1601   1.319   1_455  A
N982       Co983   2.089       .  S
Co983       N986   2.087       .  S
Co983       N990   2.074       .  S
Co983     Cl2249   2.455   1_455  S
C984       N1022   1.354       .  A
C984       C1030   1.483       .  S
N985        N992   1.319       .  A
N985       N1015   1.321       .  A
N985      Co2242   2.070       .  S
N986       N1004   1.319       .  A
N986       N1022   1.324       .  A
N987       C1016   1.354       .  A
N987        N997   1.327       .  A
H988       C1013   1.082       .  S
N989       N1594   1.319   1_565  A
N989       N1010   1.326       .  A
N990       N1008   1.320       .  A
N990        N995   1.320       .  A
C991        N995   1.345       .  A
C991       C1019   1.459       .  S
C991       C1131   1.463       .  S
N992       C1007   1.342       .  A
C993       N1021   1.334       .  A
C993        C996   1.453       .  S
C993       H1027   1.081       .  S
C996       N1017   1.356       .  A
C996       C1142   1.480       .  S
N997       N1003   1.319       .  A
N997      Co2205   2.095   1_455  S
N998       C1024   1.349       .  A
N998       N1612   1.322   1_565  A
N998      Co1014   2.112       .  S
N999       C1013   1.342       .  A
N1000      N1610   1.322   1_455  A
N1000      N1028   1.326       .  A
N1000     Co1018   2.090       .  S
H1001      C1024   1.081       .  S
H1002      C1019   1.082       .  S
N1004     Co1018   2.080       .  S
N1005      N1017   1.327       .  A
N1005      N1021   1.321       .  A
N1005     Co1014   2.099       .  S
C1006      C2244   1.463       .  S
C1007      C1026   1.462       .  S
C1007      H1011   1.081       .  S
N1008      C1019   1.341       .  A
N1008     Co1018   2.075       .  S
C1012      N1640   1.350   1_565  A
C1012      C1024   1.469       .  S
N1015      C1026   1.345       .  A
C1016      C1044   1.488       .  S
Co1018     N2209   2.070   1_455  S
Co1018    Cl2249   2.447   1_455  S
C1020      C2230   1.463   1_455  S
Cl1025    Co2207   2.455       .  S
Cl1025    Co2242   2.447       .  S
C1026      C1159   1.475       .  S
N1028      C1624   1.350   1_455  A
C1029      H1036   1.082       .  S
C1029      C1030   1.403       .  A
C1029      C1034   1.406       .  A
C1030      C1031   1.404       .  A
C1031      C1032   1.397       .  A
C1031      N1038   1.437       .  S
C1032      H1037   1.067       .  S
C1032      C1033   1.416       .  A
C1033      C1034   1.433       .  A
C1034      N1035   1.437       .  S
N1035      O1039   1.262       .  A
N1035      O1040   1.261       .  A
N1038      O1041   1.263       .  A
N1038      O1042   1.263       .  A
C1043      H1050   1.083       .  S
C1043      C1044   1.398       .  A
C1043      C1048   1.401       .  A
C1044      C1045   1.414       .  A
C1045      C1046   1.406       .  A
C1045      N1052   1.437       .  S
C1046      H1051   1.078       .  S
C1046      C1047   1.416       .  A
C1047      C1048   1.431       .  A
C1048      N1049   1.430       .  S
N1049      O1053   1.261       .  A
N1049      O1054   1.262       .  A
N1052      O1055   1.263       .  A
N1052      O1056   1.263       .  A
C1057      H1064   1.083       .  S
C1057      C1058   1.423       .  A
C1057      C1062   1.404       .  A
C1058      C1059   1.438       .  A
C1059      C1060   1.401       .  A
C1059      N1066   1.433       .  S
C1060      H1065   1.085       .  S
C1060      C1061   1.395       .  A
C1061      C1062   1.407       .  A
C1062      N1063   1.444       .  S
N1063      O1068   1.262       .  A
N1066      O1069   1.263       .  A
N1066      O1070   1.261       .  A
C1071      H1078   1.084       .  S
C1071      C1072   1.390       .  A
C1071      C1076   1.397       .  A
C1072      C1073   1.412       .  A
C1073      C1074   1.405       .  A
C1073      N1080   1.438       .  S
C1074      H1079   1.084       .  S
C1074      C1075   1.413       .  A
C1075      C1076   1.437       .  A
C1076      N1077   1.439       .  S
N1077      O1081   1.261       .  A
N1077      O1082   1.260       .  A
N1080      O1083   1.263       .  A
N1080      O1084   1.263       .  A
C1085      H1092   1.066       .  S
C1085      C1086   1.423       .  A
C1085      C1090   1.406       .  A
C1086      C1087   1.444       .  A
C1087      C1088   1.398       .  A
C1087      N1094   1.432       .  S
C1088      H1093   1.081       .  S
C1088      C1089   1.393       .  A
C1089      C1090   1.410       .  A
C1090      N1091   1.435       .  S
N1091      O1095   1.262       .  A
N1091      O1096   1.263       .  A
N1094      O1097   1.263       .  A
N1094      O1098   1.262       .  A
C1099      H1106   1.083       .  S
C1099      C1100   1.426       .  A
C1099      C1104   1.405       .  A
C1100      C1101   1.444       .  A
C1101      C1102   1.404       .  A
C1101      N1108   1.437       .  S
C1102      H1107   1.085       .  S
C1102      C1103   1.392       .  A
C1103      C1104   1.405       .  A
C1104      N1105   1.444       .  S
N1105      O1109   1.263       .  A
N1105      O1110   1.262   1_565  A
N1108      O1111   1.261       .  A
N1108      O1112   1.263       .  A
C1113      H1120   1.076       .  S
C1113      C1114   1.411       .  A
C1113      C1118   1.395       .  A
C1114      C1115   1.425       .  A
C1115      C1116   1.399       .  A
C1115      N1122   1.425       .  S
C1116      H1121   1.078       .  S
C1116      C1117   1.415       .  A
C1117      C1118   1.425       .  A
C1118      N1119   1.431       .  S
N1119      O1123   1.262       .  A
N1119      O1124   1.263       .  A
N1122      O1125   1.262       .  A
N1122      O1126   1.262       .  A
C1127      H1134   1.079       .  S
C1127      C1128   1.426       .  A
C1127      C1132   1.397       .  A
C1128      C1129   1.446       .  A
C1129      C1130   1.403       .  A
C1129      N1136   1.435       .  S
C1130      H1135   1.085       .  S
C1130      C1131   1.388       .  A
C1131      C1132   1.403       .  A
C1132      N1133   1.440       .  S
N1133      O1137   1.263       .  A
N1133      O1138   1.263       .  A
N1136      O1139   1.260       .  A
N1136      O1140   1.262       .  A
C1141      H1148   1.084       .  S
C1141      C1142   1.397       .  A
C1141      C1146   1.404       .  A
C1142      C1143   1.410       .  A
C1143      C1144   1.398       .  A
C1143      N1150   1.436       .  S
C1144      H1149   1.079       .  S
C1144      C1145   1.416       .  A
C1145      C1146   1.442       .  A
C1146      N1147   1.444       .  S
N1147      O1151   1.262       .  A
N1147      O1152   1.259       .  A
N1150      O1153   1.263       .  A
N1150      O1154   1.262       .  A
C1155      H1162   1.072       .  S
C1155      C1156   1.413       .  A
C1155      C1160   1.393       .  A
C1156      C1157   1.429       .  A
C1157      C1158   1.404       .  A
C1157      N1164   1.432       .  S
C1158      H1163   1.083       .  S
C1158      C1159   1.399       .  A
C1159      C1160   1.406       .  A
C1160      N1161   1.432       .  S
N1161      O1165   1.262       .  A
N1161      O1166   1.262       .  A
N1164      O1167   1.263       .  A
N1164      O1168   1.262       .  A
C1169      H1176   1.084       .  S
C1169      C1174   1.398       .  A
C1170      C1171   1.413       .  A
C1171      C1172   1.402       .  A
C1171      N1178   1.433       .  S
C1172      H1177   1.083       .  S
C1172      C1173   1.414       .  A
C1174      N1175   1.434       .  S
N1175      O1179   1.260       .  A
N1175      O1180   1.260       .  A
N1178      O1181   1.263       .  A
N1178      O1182   1.263       .  A
C1183      H1190   1.079       .  S
C1183      C1184   1.421       .  A
C1183      C1188   1.409       .  A
C1185      N1192   1.427       .  S
C1186      C1187   1.392       .  A
C1187      C1188   1.411       .  A
C1188      N1189   1.439       .  S
N1189      O1193   1.262       .  A
N1189      O1194   1.263       .  A
N1192      O1195   1.262       .  A
N1192      O1196   1.262       .  A
C1197      H1204   1.075       .  S
C1197      C1198   1.421       .  A
C1197      C1202   1.409       .  A
C1198      C1199   1.436   1_556  A
C1199      C1200   1.398   1_554  A
C1199      N1206   1.434       .  S
C1200      H1205   1.083   1_556  S
C1200      C1201   1.396       .  A
C1201      C1202   1.411       .  A
C1202      N1203   1.438       .  S
N1203      O1208   1.262       .  A
N1206      O1210   1.261       .  A
C1211      H1218   1.075       .  S
C1211      C1212   1.409       .  A
C1211      C1216   1.402       .  A
C1212      C1213   1.428       .  A
C1213      C1214   1.393       .  A
C1213      N1220   1.436       .  S
C1214      H1219   1.072       .  S
C1214      C1215   1.400       .  A
C1215      C1216   1.440       .  A
C1216      N1217   1.443       .  S
N1217      O1221   1.264       .  A
N1217      O1222   1.261       .  A
N1220      O1223   1.263       .  A
N1220      O1224   1.261       .  A
C1225      C1785   1.569   1_554  S
C1225      C1796   1.583   1_554  S
C1225      C1810   1.581   1_554  S
C1225      C1518   1.556       .  S
C1226      C1434   1.591       .  S
C1226      C1451   1.569       .  S
C1226      C1462   1.567       .  S
C1226      C1521   1.586       .  S
C1227      C1381   1.563       .  S
C1227      C1392   1.597       .  S
C1227      C1406   1.601       .  S
C1227      C1420   1.572       .  S
C1228      C1339   1.567       .  S
C1228      C1353   1.577       .  S
C1228      C1364   1.573       .  S
C1228      C1423   1.581       .  S
C1229      N1247   1.353       .  A
C1229      C1266   1.460       .  S
C1229      C1507   1.487       .  S
N1230      N1247   1.327       .  A
N1230      N1252   1.319       .  A
N1230     Co1879   2.092   1_545  S
C1231      N1256   1.336       .  A
C1231      C1269   1.455       .  S
C1231      H1276   1.080       .  S
H1232      C1273   1.082       .  S
C1233      N1257   1.340       .  A
C1233      C1849   1.458       .  S
C1233      H1262   1.081       .  S
Co1234     N1242   2.075       .  S
Co1234     N1580   2.100       .  S
Co1234     N1250   2.093       .  S
N1235      C1273   1.339       .  A
N1235      N1242   1.321       .  A
N1235     Co1236   2.081       .  S
Co1236     N1239   2.099       .  S
Co1236     N1256   2.070       .  S
Co1236     N1855   2.072   1_545  S
C1237      C1845   1.458   1_545  S
C1237      C1312   1.477       .  S
N1238      N1245   1.320       .  A
N1238      N1268   1.325       .  A
N1238     Co1271   2.083       .  S
N1239      N1275   1.329       .  A
N1240      C1269   1.356       .  A
N1240      N1250   1.324       .  A
H1241      C1266   1.081       .  S
N1242      N1263   1.322       .  A
N1243      N1261   1.317       .  A
N1243      N1248   1.323       .  A
N1243     Co1848   2.072       .  S
C1244      N1248   1.348       .  A
C1244      C1272   1.467       .  S
C1244      C1395   1.486       .  S
N1245      C1260   1.339       .  A
N1245     Co1267   2.088       .  S
C1246      N1274   1.344       .  A
C1246      H1280   1.081       .  S
C1249      N1270   1.353       .  A
C1249      C1318   1.485       .  S
N1250      N1256   1.320       .  A
N1251      C1277   1.339       .  A
N1251      N1253   1.320       .  A
N1251     Co1267   2.087       .  S
N1252      C1266   1.339       .  A
N1253      N1281   1.324       .  A
N1253     Co1271   2.079       .  S
H1254      C1583   1.081   1_554  S
H1255      C1272   1.080       .  S
N1257     Co1271   2.083       .  S
N1258      N1270   1.330       .  A
N1258     Co1573   2.102   1_554  S
C1259      N1263   1.344       .  A
C1259      C1273   1.461       .  S
C1259      C1378   1.471       .  S
C1260      C1279   1.458       .  S
C1260      H1264   1.081       .  S
N1261      C1272   1.339       .  A
C1265      N1281   1.348       .  A
C1265      C1277   1.465       .  S
C1265      C1493   1.479       .  S
Co1267     N1842   2.092       .  S
Co1267     N1564   2.102       .  S
Co1267    Cl1890   2.455       .  S
N1268      C1279   1.350       .  A
C1269      C1476   1.482       .  S
Co1271    Cl1890   2.450       .  S
N1274     Co1540   2.100   1_554  S
C1277      H1560   1.081       .  S
Cl1278    Co1879   2.455   1_545  S
Cl1278    Co1883   2.450   1_545  S
C1279      C1409   1.470       .  S
C1282      N1300   1.347       .  A
C1282      C1319   1.463       .  S
C1282      C1367   1.470       .  S
N1283      N1300   1.323       .  A
N1283      N1305   1.321       .  A
N1283     Co1320   2.085       .  S
C1284      N1309   1.340       .  A
C1284      C1322   1.462       .  S
C1284      H1329   1.080       .  S
H1285      C1326   1.081       .  S
C1286      N1310   1.338       .  A
C1286      C1290   1.458       .  S
C1286      H1315   1.080       .  S
Co1287     N1305   2.086       .  S
Co1287     N1295   2.092       .  S
Co1287     N1327   2.068       .  S
Co1287    Cl1943   2.445       .  S
N1288      C1326   1.345       .  A
N1288     Co1289   2.089       .  S
Co1289     N1292   2.087       .  S
Co1289     N1921   2.083   1_545  S
Co1289     N1296   2.074       .  S
C1290      N1328   1.354       .  A
C1290      C1336   1.483       .  S
N1291      N1298   1.319       .  A
N1291      N1321   1.321       .  A
N1292      N1310   1.319       .  A
N1292      N1328   1.324       .  A
N1293      C1322   1.354       .  A
N1293      N1303   1.327       .  A
H1294      C1319   1.082       .  S
N1295      N1316   1.326       .  A
N1296      N1314   1.320       .  A
N1296      N1301   1.320       .  A
C1297      N1301   1.345       .  A
C1297      C1325   1.459       .  S
C1297      C1437   1.463       .  S
N1298      C1313   1.342       .  A
N1298     Co1932   2.085   1_545  S
C1299      N1327   1.334       .  A
C1299      C1302   1.453       .  S
C1299      H1333   1.081       .  S
C1302      N1323   1.356       .  A
C1302      C1448   1.480       .  S
N1303      N1309   1.319       .  A
N1304      C1330   1.349       .  A
N1304     Co1320   2.112       .  S
N1305      C1319   1.342       .  A
N1306      N1334   1.326       .  A
N1306     Co1324   2.090       .  S
H1307      C1330   1.081       .  S
H1308      C1325   1.082       .  S
N1309     Co1901   2.083       .  S
N1310     Co1324   2.080       .  S
N1311      N1323   1.327       .  A
N1311      N1327   1.321       .  A
N1311     Co1320   2.099       .  S
C1312      N1928   1.352   1_545  A
C1313      C1332   1.462       .  S
C1313      H1317   1.081       .  S
N1314      C1325   1.341       .  A
N1314     Co1324   2.075       .  S
N1316      C1924   1.352       .  A
C1318      C1330   1.469       .  S
Co1320     N1910   2.085       .  S
Co1320    Cl1943   2.457       .  S
N1321      C1332   1.345       .  A
C1322      C1350   1.488       .  S
Cl1331    Co1899   2.445   1_545  S
Cl1331    Co1932   2.457   1_545  S
C1332      C1465   1.475       .  S
C1335      H1342   1.082       .  S
C1335      C1336   1.403       .  A
C1335      C1340   1.406       .  A
C1336      C1337   1.404       .  A
C1337      C1338   1.397       .  A
C1337      N1344   1.437       .  S
C1338      H1343   1.067       .  S
C1338      C1339   1.416       .  A
C1339      C1340   1.433       .  A
C1340      N1341   1.437       .  S
N1341      O1345   1.262       .  A
N1341      O1346   1.261       .  A
N1344      O1347   1.263       .  A
N1344      O1348   1.263       .  A
C1349      H1356   1.083       .  S
C1349      C1350   1.398       .  A
C1349      C1354   1.401       .  A
C1350      C1351   1.414       .  A
C1351      C1352   1.406       .  A
C1351      N1358   1.437       .  S
C1352      H1357   1.078       .  S
C1352      C1353   1.416       .  A
C1353      C1354   1.431       .  A
C1354      N1355   1.430       .  S
N1355      O1359   1.261       .  A
N1355      O1360   1.262       .  A
N1358      O1361   1.263       .  A
N1358      O1362   1.263       .  A
C1363      H1370   1.083       .  S
C1363      C1364   1.423       .  A
C1363      C1368   1.404       .  A
C1364      C1365   1.438       .  A
C1365      C1366   1.401       .  A
C1365      N1372   1.433       .  S
C1366      H1371   1.085       .  S
C1366      C1367   1.395       .  A
C1367      C1368   1.407       .  A
C1368      N1369   1.444       .  S
N1369      O1985   1.263       .  A
N1369      O1374   1.262       .  A
N1372      O1375   1.263       .  A
N1372      O1376   1.261       .  A
O1373      N1981   1.263       .  A
C1377      H1384   1.084       .  S
C1377      C1378   1.390       .  A
C1377      C1382   1.397       .  A
C1378      C1379   1.412       .  A
C1379      C1380   1.405       .  A
C1379      N1386   1.438       .  S
C1380      H1385   1.084       .  S
C1380      C1381   1.413       .  A
C1381      C1382   1.437       .  A
C1382      N1383   1.439       .  S
N1383      O1387   1.261       .  A
N1383      O1388   1.260       .  A
N1386      O1389   1.263       .  A
N1386      O1390   1.263       .  A
C1391      H1398   1.066       .  S
C1391      C1392   1.423       .  A
C1391      C1396   1.406       .  A
C1392      C1393   1.444       .  A
C1393      C1394   1.398       .  A
C1393      N1400   1.432       .  S
C1394      H1399   1.081       .  S
C1394      C1395   1.393       .  A
C1395      C1396   1.410       .  A
C1396      N1397   1.435       .  S
N1397      O1401   1.262       .  A
N1397      O1402   1.263       .  A
N1400      O1403   1.263       .  A
N1400      O1404   1.262       .  A
C1405      H1412   1.083       .  S
C1405      C1406   1.426       .  A
C1405      C1410   1.405       .  A
C1406      C1407   1.444       .  A
C1407      C1408   1.404       .  A
C1407      N1414   1.437       .  S
C1408      H1413   1.085       .  S
C1408      C1409   1.392       .  A
C1409      C1410   1.405       .  A
C1410      N1411   1.444       .  S
N1411      O1415   1.263       .  A
N1411      O1416   1.262       .  A
N1414      O1417   1.261       .  A
N1414      O1418   1.263       .  A
C1419      H1426   1.076       .  S
C1419      C1420   1.411       .  A
C1419      C1424   1.395       .  A
C1420      C1421   1.425       .  A
C1421      C1422   1.399       .  A
C1421      N1428   1.425       .  S
C1422      H1427   1.078       .  S
C1422      C1423   1.415       .  A
C1423      C1424   1.425       .  A
C1424      N1425   1.431       .  S
N1425      O1429   1.262       .  A
N1425      O1430   1.263       .  A
N1428      O1431   1.262       .  A
N1428      O1432   1.262       .  A
C1433      H1440   1.079       .  S
C1433      C1434   1.426       .  A
C1433      C1438   1.397       .  A
C1434      C1435   1.446       .  A
C1435      C1436   1.403       .  A
C1435      N1442   1.435       .  S
C1436      H1441   1.085       .  S
C1436      C1437   1.388       .  A
C1437      C1438   1.403       .  A
C1438      N1439   1.440       .  S
N1439      O1443   1.263       .  A
N1439      O1444   1.263       .  A
N1442      O1445   1.260       .  A
N1442      O1446   1.262       .  A
C1447      H1454   1.084       .  S
C1447      C1448   1.397       .  A
C1447      C1452   1.404       .  A
C1448      C1449   1.410       .  A
C1449      C1450   1.398       .  A
C1449      N1456   1.436       .  S
C1450      H1455   1.079       .  S
C1450      C1451   1.416       .  A
C1451      C1452   1.442       .  A
C1452      N1453   1.444       .  S
N1453      O1457   1.262       .  A
N1453      O1458   1.259       .  A
N1456      O1459   1.263       .  A
N1456      O1460   1.262       .  A
C1461      H1468   1.072       .  S
C1461      C1462   1.413       .  A
C1461      C1466   1.393       .  A
C1462      C1463   1.429       .  A
C1463      C1464   1.404       .  A
C1463      N1470   1.432       .  S
C1464      H1469   1.083       .  S
C1464      C1465   1.399       .  A
C1465      C1466   1.406       .  A
C1466      N1467   1.432       .  S
N1467      O1471   1.262       .  A
N1467      O1472   1.262       .  A
N1470      O1473   1.263       .  A
N1470      O1474   1.262       .  A
C1475      H1482   1.084       .  S
C1475      C1782   1.391   1_554  A
C1475      C1480   1.398       .  A
C1476      C1781   1.391       .  A
C1476      C1477   1.413       .  A
C1477      C1478   1.402       .  A
C1477      N1484   1.433       .  S
C1478      H1483   1.083       .  S
C1478      C1479   1.414       .  A
C1479      C1531   1.569       .  S
C1479      C1786   1.444       .  A
C1480      C1785   1.444   1_554  A
C1480      N1481   1.434       .  S
N1481      O1485   1.260       .  A
N1481      O1486   1.260       .  A
N1484      O1487   1.263       .  A
N1484      O1488   1.263       .  A
C1489      H1496   1.079       .  S
C1489      C1490   1.421       .  A
C1489      C1494   1.409       .  A
C1490      C1531   1.583       .  S
C1490      C1797   1.431       .  A
C1491      C1796   1.431   1_554  A
C1491      C1798   1.396   1_554  A
C1491      N1498   1.427       .  S
C1492      H1803   1.084       .  S
C1492      C1797   1.396       .  A
C1492      C1493   1.392       .  A
C1493      C1494   1.411       .  A
C1494      N1495   1.439       .  S
N1495      O1499   1.262       .  A
N1495      O1500   1.263       .  A
H1497      C1798   1.084       .  S
N1498      O1501   1.262       .  A
N1498      O1502   1.262       .  A
C1503      H1510   1.075       .  S
C1503      C1504   1.421       .  A
C1503      C1508   1.409       .  A
C1504      C1531   1.581       .  S
C1504      C1505   1.436       .  A
C1505      C1506   1.398       .  A
C1505      N1512   1.434       .  S
C1506      H1511   1.083       .  S
C1506      C1507   1.396       .  A
C1507      C1508   1.411       .  A
C1508      N1509   1.438       .  S
N1509      O1819   1.263       .  A
N1509      O1514   1.262       .  A
N1512      O1821   1.263       .  A
N1512      O1516   1.261       .  A
O1513      N1815   1.263       .  A
O1515      N1818   1.263       .  A
C1517      H1524   1.075       .  S
C1517      C1518   1.409       .  A
C1517      C1522   1.402       .  A
C1518      C1519   1.428       .  A
C1519      C1520   1.393       .  A
C1519      N1526   1.436       .  S
C1520      H1525   1.072       .  S
C1520      C1521   1.400       .  A
C1521      C1522   1.440       .  A
C1522      N1523   1.443       .  S
N1523      O1527   1.264       .  A
N1523      O1528   1.261       .  A
N1526      O1529   1.263       .  A
N1526      O1530   1.261       .  A
C1531      C1824   1.556       .  S
C1532      C1740   1.591       .  S
C1532      C1757   1.569       .  S
C1532      C1768   1.567       .  S
C1532      C1827   1.586       .  S
C1533      C1687   1.563       .  S
C1533      C1698   1.597       .  S
C1533      C1712   1.601       .  S
C1533      C1726   1.572       .  S
C1534      C1645   1.567       .  S
C1534      C1659   1.577       .  S
C1534      C1670   1.573       .  S
C1534      C1729   1.581       .  S
C1535      N1553   1.353       .  A
C1535      C1572   1.460       .  S
C1535      C1813   1.487       .  S
N1536      N1553   1.327       .  A
N1536      N1558   1.319       .  A
N1536     Co2185   2.092   1_545  S
C1537      N1562   1.336       .  A
C1537      C1575   1.455       .  S
C1537      H1582   1.080       .  S
H1538      C1579   1.082       .  S
C1539      N1563   1.340       .  A
C1539      C2155   1.458       .  S
C1539      H1568   1.081       .  S
Co1540     N1548   2.075       .  S
Co1540     N1556   2.093       .  S
N1541      C1579   1.339       .  A
N1541      N1548   1.321       .  A
N1541     Co1542   2.081       .  S
Co1542     N1545   2.099       .  S
Co1542     N1562   2.070       .  S
Co1542     N2161   2.072   1_545  S
C1543      C2151   1.458   1_545  S
C1543      C1618   1.477       .  S
N1544      N1551   1.320       .  A
N1544      N1574   1.325       .  A
N1544     Co1577   2.083       .  S
N1545      N1581   1.329       .  A
N1546      C1575   1.356       .  A
N1546      N1556   1.324       .  A
H1547      C1572   1.081       .  S
N1548      N1569   1.322       .  A
N1549      N1567   1.317       .  A
N1549      N1554   1.323       .  A
N1549     Co2154   2.072       .  S
C1550      N1554   1.348       .  A
C1550      C1578   1.467       .  S
C1550      C1701   1.486       .  S
N1551      C1566   1.339       .  A
N1551     Co1573   2.088       .  S
C1552      N1580   1.344       .  A
C1552      H1586   1.081       .  S
C1555      N1576   1.353       .  A
C1555      C1624   1.485       .  S
N1556      N1562   1.320       .  A
N1557      C1583   1.339       .  A
N1557      N1559   1.320       .  A
N1557     Co1573   2.087       .  S
N1558      C1572   1.339       .  A
N1559      N1587   1.324       .  A
N1559     Co1577   2.079       .  S
H1561      C1578   1.080       .  S
N1563     Co1577   2.083       .  S
N1564      N1576   1.330       .  A
C1565      N1569   1.344       .  A
C1565      C1579   1.461       .  S
C1565      C1684   1.471       .  S
C1566      C1585   1.458       .  S
C1566      H1570   1.081       .  S
N1567      C1578   1.339       .  A
C1571      N1587   1.348       .  A
C1571      C1583   1.465       .  S
C1571      C1799   1.479       .  S
Co1573     N2148   2.092       .  S
Co1573    Cl2196   2.455       .  S
N1574      C1585   1.350       .  A
C1575      C1782   1.482       .  S
Co1577    Cl2196   2.450       .  S
Cl1584    Co2185   2.455   1_545  S
Cl1584    Co2189   2.450   1_545  S
C1585      C1715   1.470       .  S
C1588      N1606   1.347       .  A
C1588      C1625   1.463       .  S
C1588      C1673   1.470       .  S
N1589      N1606   1.323       .  A
N1589      N1611   1.321       .  A
N1589     Co1626   2.085       .  S
C1590      N1615   1.340       .  A
C1590      C1628   1.462       .  S
C1590      H1635   1.080       .  S
H1591      C1632   1.081       .  S
C1592      N1616   1.338       .  A
C1592      C1596   1.458       .  S
C1592      H1621   1.080       .  S
Co1593     N1611   2.086       .  S
Co1593     N1601   2.092       .  S
Co1593     N1633   2.068       .  S
Co1593    Cl2249   2.445       .  S
N1594      C1632   1.345       .  A
N1594     Co1595   2.089       .  S
Co1595     N1598   2.087       .  S
Co1595     N2227   2.083   1_545  S
Co1595     N1602   2.074       .  S
C1596      N1634   1.354       .  A
C1596      C1642   1.483       .  S
N1597      N1604   1.319       .  A
N1597      N1627   1.321       .  A
N1598      N1616   1.319       .  A
N1598      N1634   1.324       .  A
N1599      C1628   1.354       .  A
N1599      N1609   1.327       .  A
H1600      C1625   1.082       .  S
N1601      N1622   1.326       .  A
N1602      N1620   1.320       .  A
N1602      N1607   1.320       .  A
C1603      N1607   1.345       .  A
C1603      C1631   1.459       .  S
C1603      C1743   1.463       .  S
N1604      C1619   1.342       .  A
N1604     Co2238   2.085   1_545  S
C1605      N1633   1.334       .  A
C1605      C1608   1.453       .  S
C1605      H1639   1.081       .  S
C1608      N1629   1.356       .  A
C1608      C1754   1.480       .  S
N1609      N1615   1.319       .  A
N1610      C1636   1.349       .  A
N1610     Co1626   2.112       .  S
N1611      C1625   1.342       .  A
N1612      N1640   1.326       .  A
N1612     Co1630   2.090       .  S
H1613      C1636   1.081       .  S
H1614      C1631   1.082       .  S
N1615     Co2207   2.083       .  S
N1616     Co1630   2.080       .  S
N1617      N1629   1.327       .  A
N1617      N1633   1.321       .  A
N1617     Co1626   2.099       .  S
C1618      N2234   1.352   1_545  A
C1619      C1638   1.462       .  S
C1619      H1623   1.081       .  S
N1620      C1631   1.341       .  A
N1620     Co1630   2.075       .  S
N1622      C2230   1.352       .  A
C1624      C1636   1.469       .  S
Co1626     N2216   2.085       .  S
Co1626    Cl2249   2.457       .  S
N1627      C1638   1.345       .  A
C1628      C1656   1.488       .  S
Cl1637    Co2205   2.445   1_545  S
Cl1637    Co2238   2.457   1_545  S
C1638      C1771   1.475       .  S
C1641      H1648   1.082       .  S
C1641      C1642   1.403       .  A
C1641      C1646   1.406       .  A
C1642      C1643   1.404       .  A
C1643      C1644   1.397       .  A
C1643      N1650   1.437       .  S
C1644      H1649   1.067       .  S
C1644      C1645   1.416       .  A
C1645      C1646   1.433       .  A
C1646      N1647   1.437       .  S
N1647      O1651   1.262       .  A
N1647      O1652   1.261       .  A
N1650      O1653   1.263       .  A
N1650      O1654   1.263       .  A
C1655      H1662   1.083       .  S
C1655      C1656   1.398       .  A
C1655      C1660   1.401       .  A
C1656      C1657   1.414       .  A
C1657      C1658   1.406       .  A
C1657      N1664   1.437       .  S
C1658      H1663   1.078       .  S
C1658      C1659   1.416       .  A
C1659      C1660   1.431       .  A
C1660      N1661   1.430       .  S
N1661      O1665   1.261       .  A
N1661      O1666   1.262       .  A
N1664      O1667   1.263       .  A
N1664      O1668   1.263       .  A
C1669      H1676   1.083       .  S
C1669      C1670   1.423       .  A
C1669      C1674   1.404       .  A
C1670      C1671   1.438       .  A
C1671      C1672   1.401       .  A
C1671      N1678   1.433       .  S
C1672      H1677   1.085       .  S
C1672      C1673   1.395       .  A
C1673      C1674   1.407       .  A
C1674      N1675   1.444       .  S
N1675      O2291   1.263       .  A
N1675      O1680   1.262       .  A
N1678      O1681   1.263       .  A
N1678      O1682   1.261       .  A
O1679      N2287   1.263       .  A
C1683      H1690   1.084       .  S
C1683      C1684   1.390       .  A
C1683      C1688   1.397       .  A
C1684      C1685   1.412       .  A
C1685      C1686   1.405       .  A
C1685      N1692   1.438       .  S
C1686      H1691   1.084       .  S
C1686      C1687   1.413       .  A
C1687      C1688   1.437       .  A
C1688      N1689   1.439       .  S
N1689      O1693   1.261       .  A
N1689      O1694   1.260       .  A
N1692      O1695   1.263       .  A
N1692      O1696   1.263       .  A
C1697      H1704   1.066       .  S
C1697      C1698   1.423       .  A
C1697      C1702   1.406       .  A
C1698      C1699   1.444       .  A
C1699      C1700   1.398       .  A
C1699      N1706   1.432       .  S
C1700      H1705   1.081       .  S
C1700      C1701   1.393       .  A
C1701      C1702   1.410       .  A
C1702      N1703   1.435       .  S
N1703      O1707   1.262       .  A
N1703      O1708   1.263       .  A
N1706      O1709   1.263       .  A
N1706      O1710   1.262       .  A
C1711      H1718   1.083       .  S
C1711      C1712   1.426       .  A
C1711      C1716   1.405       .  A
C1712      C1713   1.444       .  A
C1713      C1714   1.404       .  A
C1713      N1720   1.437       .  S
C1714      H1719   1.085       .  S
C1714      C1715   1.392       .  A
C1715      C1716   1.405       .  A
C1716      N1717   1.444       .  S
N1717      O1721   1.263       .  A
N1717      O1722   1.262       .  A
N1720      O1723   1.261       .  A
N1720      O1724   1.263       .  A
C1725      H1732   1.076       .  S
C1725      C1726   1.411       .  A
C1725      C1730   1.395       .  A
C1726      C1727   1.425       .  A
C1727      C1728   1.399       .  A
C1727      N1734   1.425       .  S
C1728      H1733   1.078       .  S
C1728      C1729   1.415       .  A
C1729      C1730   1.425       .  A
C1730      N1731   1.431       .  S
N1731      O1735   1.262       .  A
N1731      O1736   1.263       .  A
N1734      O1737   1.262       .  A
N1734      O1738   1.262       .  A
C1739      H1746   1.079       .  S
C1739      C1740   1.426       .  A
C1739      C1744   1.397       .  A
C1740      C1741   1.446       .  A
C1741      C1742   1.403       .  A
C1741      N1748   1.435       .  S
C1742      H1747   1.085       .  S
C1742      C1743   1.388       .  A
C1743      C1744   1.403       .  A
C1744      N1745   1.440       .  S
N1745      O1749   1.263       .  A
N1745      O1750   1.263       .  A
N1748      O1751   1.260       .  A
N1748      O1752   1.262       .  A
C1753      H1760   1.084       .  S
C1753      C1754   1.397       .  A
C1753      C1758   1.404       .  A
C1754      C1755   1.410       .  A
C1755      C1756   1.398       .  A
C1755      N1762   1.436       .  S
C1756      H1761   1.079       .  S
C1756      C1757   1.416       .  A
C1757      C1758   1.442       .  A
C1758      N1759   1.444       .  S
N1759      O1763   1.262       .  A
N1759      O1764   1.259       .  A
N1762      O1765   1.263       .  A
N1762      O1766   1.262       .  A
C1767      H1774   1.072       .  S
C1767      C1768   1.413       .  A
C1767      C1772   1.393       .  A
C1768      C1769   1.429       .  A
C1769      C1770   1.404       .  A
C1769      N1776   1.432       .  S
C1770      H1775   1.083       .  S
C1770      C1771   1.399       .  A
C1771      C1772   1.406       .  A
C1772      N1773   1.432       .  S
N1773      O1777   1.262       .  A
N1773      O1778   1.262       .  A
N1776      O1779   1.263       .  A
N1776      O1780   1.262       .  A
C1781      H1788   1.084       .  S
C1781      C1786   1.398       .  A
C1782      C1783   1.413       .  A
C1783      C1784   1.402       .  A
C1783      N1790   1.433       .  S
C1784      H1789   1.083       .  S
C1784      C1785   1.414       .  A
C1786      N1787   1.434       .  S
N1787      O1791   1.260       .  A
N1787      O1792   1.260       .  A
N1790      O1793   1.263       .  A
N1790      O1794   1.263       .  A
C1795      H1802   1.079       .  S
C1795      C1796   1.421       .  A
C1795      C1800   1.409       .  A
C1797      N1804   1.427       .  S
C1798      C1799   1.392       .  A
C1799      C1800   1.411       .  A
C1800      N1801   1.439       .  S
N1801      O1805   1.262       .  A
N1801      O1806   1.263       .  A
N1804      O1807   1.262       .  A
N1804      O1808   1.262       .  A
C1809      H1816   1.075       .  S
C1809      C1810   1.421       .  A
C1809      C1814   1.409       .  A
C1810      C1811   1.436   1_556  A
C1811      C1812   1.398   1_554  A
C1811      N1818   1.434       .  S
C1812      H1817   1.083   1_556  S
C1812      C1813   1.396       .  A
C1813      C1814   1.411       .  A
C1814      N1815   1.438       .  S
N1815      O1820   1.262       .  A
N1818      O1822   1.261       .  A
C1823      H1830   1.075       .  S
C1823      C1824   1.409       .  A
C1823      C1828   1.402       .  A
C1824      C1825   1.428       .  A
C1825      C1826   1.393       .  A
C1825      N1832   1.436       .  S
C1826      H1831   1.072       .  S
C1826      C1827   1.400       .  A
C1827      C1828   1.440       .  A
C1828      N1829   1.443       .  S
N1829      O1833   1.264       .  A
N1829      O1834   1.261       .  A
N1832      O1835   1.263       .  A
N1832      O1836   1.261       .  A
C1837      C2397   1.569   1_554  S
C1837      C2408   1.583   1_554  S
C1837      C2422   1.581   1_554  S
C1837      C2130   1.556       .  S
C1838      C2046   1.591       .  S
C1838      C2063   1.569       .  S
C1838      C2074   1.567       .  S
C1838      C2133   1.586       .  S
C1839      C1993   1.563       .  S
C1839      C2004   1.597       .  S
C1839      C2018   1.601       .  S
C1839      C2032   1.572       .  S
C1840      C1951   1.567       .  S
C1840      C1965   1.577       .  S
C1840      C1976   1.573       .  S
C1840      C2035   1.581       .  S
C1841      N1859   1.353       .  A
C1841      C1878   1.460       .  S
C1841      C2119   1.487       .  S
N1842      N1859   1.327       .  A
N1842      N1864   1.319       .  A
C1843      N1868   1.336       .  A
C1843      C1881   1.455       .  S
C1843      H1888   1.080       .  S
H1844      C1885   1.082       .  S
C1845      N1869   1.340       .  A
C1845      H1874   1.081       .  S
Co1846     N1854   2.075       .  S
Co1846     N2192   2.100       .  S
Co1846     N1862   2.093       .  S
N1847      C1885   1.339       .  A
N1847      N1854   1.321       .  A
N1847     Co1848   2.081       .  S
Co1848     N1851   2.099       .  S
Co1848     N1868   2.070       .  S
C1849      C1924   1.477       .  S
N1850      N1857   1.320       .  A
N1850      N1880   1.325       .  A
N1850     Co1883   2.083       .  S
N1851      N1887   1.329       .  A
N1852      C1881   1.356       .  A
N1852      N1862   1.324       .  A
H1853      C1878   1.081       .  S
N1854      N1875   1.322       .  A
N1855      N1873   1.317       .  A
N1855      N1860   1.323       .  A
C1856      N1860   1.348       .  A
C1856      C1884   1.467       .  S
C1856      C2007   1.486       .  S
N1857      C1872   1.339       .  A
N1857     Co1879   2.088       .  S
C1858      N1886   1.344       .  A
C1858      H1892   1.081       .  S
C1861      N1882   1.353       .  A
C1861      C1930   1.485       .  S
N1862      N1868   1.320       .  A
N1863      C1889   1.339       .  A
N1863      N1865   1.320       .  A
N1863     Co1879   2.087       .  S
N1864      C1878   1.339       .  A
N1865      N1893   1.324       .  A
N1865     Co1883   2.079       .  S
H1866      C2195   1.081   1_554  S
H1867      C1884   1.080       .  S
N1869     Co1883   2.083       .  S
N1870      N1882   1.330       .  A
N1870     Co2185   2.102   1_554  S
C1871      N1875   1.344       .  A
C1871      C1885   1.461       .  S
C1871      C1990   1.471       .  S
C1872      C1891   1.458       .  S
C1872      H1876   1.081       .  S
N1873      C1884   1.339       .  A
C1877      N1893   1.348       .  A
C1877      C1889   1.465       .  S
C1877      C2105   1.479       .  S
Co1879     N2176   2.102       .  S
N1880      C1891   1.350       .  A
C1881      C2088   1.482       .  S
N1886     Co2152   2.100   1_554  S
C1889      H2172   1.081       .  S
C1891      C2021   1.470       .  S
C1894      N1912   1.347       .  A
C1894      C1931   1.463       .  S
C1894      C1979   1.470       .  S
N1895      N1912   1.323       .  A
N1895      N1917   1.321       .  A
N1895     Co1932   2.085       .  S
C1896      N1921   1.340       .  A
C1896      C1934   1.462       .  S
C1896      H1941   1.080       .  S
H1897      C1938   1.081       .  S
C1898      N1922   1.338       .  A
C1898      C1902   1.458       .  S
C1898      H1927   1.080       .  S
Co1899     N1917   2.086       .  S
Co1899     N1907   2.092       .  S
Co1899     N1939   2.068       .  S
N1900      C1938   1.345       .  A
N1900     Co1901   2.089       .  S
Co1901     N1904   2.087       .  S
Co1901     N1908   2.074       .  S
C1902      N1940   1.354       .  A
C1902      C1948   1.483       .  S
N1903      N1910   1.319       .  A
N1903      N1933   1.321       .  A
N1904      N1922   1.319       .  A
N1904      N1940   1.324       .  A
N1905      C1934   1.354       .  A
N1905      N1915   1.327       .  A
H1906      C1931   1.082       .  S
N1907      N1928   1.326       .  A
N1908      N1926   1.320       .  A
N1908      N1913   1.320       .  A
C1909      N1913   1.345       .  A
C1909      C1937   1.459       .  S
C1909      C2049   1.463       .  S
N1910      C1925   1.342       .  A
C1911      N1939   1.334       .  A
C1911      C1914   1.453       .  S
C1911      H1945   1.081       .  S
C1914      N1935   1.356       .  A
C1914      C2060   1.480       .  S
N1915      N1921   1.319       .  A
N1916      C1942   1.349       .  A
N1916     Co1932   2.112       .  S
N1917      C1931   1.342       .  A
N1918      N1946   1.326       .  A
N1918     Co1936   2.090       .  S
H1919      C1942   1.081       .  S
H1920      C1937   1.082       .  S
N1922     Co1936   2.080       .  S
N1923      N1935   1.327       .  A
N1923      N1939   1.321       .  A
N1923     Co1932   2.099       .  S
C1925      C1944   1.462       .  S
C1925      H1929   1.081       .  S
N1926      C1937   1.341       .  A
N1926     Co1936   2.075       .  S
C1930      C1942   1.469       .  S
N1933      C1944   1.345       .  A
C1934      C1962   1.488       .  S
C1944      C2077   1.475       .  S
C1947      H1954   1.082       .  S
C1947      C1948   1.403       .  A
C1947      C1952   1.406       .  A
C1948      C1949   1.404       .  A
C1949      C1950   1.397       .  A
C1949      N1956   1.437       .  S
C1950      H1955   1.067       .  S
C1950      C1951   1.416       .  A
C1951      C1952   1.433       .  A
C1952      N1953   1.437       .  S
N1953      O1957   1.262       .  A
N1953      O1958   1.261       .  A
N1956      O1959   1.263       .  A
N1956      O1960   1.263       .  A
C1961      H1968   1.083       .  S
C1961      C1962   1.398       .  A
C1961      C1966   1.401       .  A
C1962      C1963   1.414       .  A
C1963      C1964   1.406       .  A
C1963      N1970   1.437       .  S
C1964      H1969   1.078       .  S
C1964      C1965   1.416       .  A
C1965      C1966   1.431       .  A
C1966      N1967   1.430       .  S
N1967      O1971   1.261       .  A
N1967      O1972   1.262       .  A
N1970      O1973   1.263       .  A
N1970      O1974   1.263       .  A
C1975      H1982   1.083       .  S
C1975      C1976   1.423       .  A
C1975      C1980   1.404       .  A
C1976      C1977   1.438       .  A
C1977      C1978   1.401       .  A
C1977      N1984   1.433       .  S
C1978      H1983   1.085       .  S
C1978      C1979   1.395       .  A
C1979      C1980   1.407       .  A
C1980      N1981   1.444       .  S
N1981      O1986   1.262       .  A
N1984      O1987   1.263       .  A
N1984      O1988   1.261       .  A
C1989      H1996   1.084       .  S
C1989      C1990   1.390       .  A
C1989      C1994   1.397       .  A
C1990      C1991   1.412       .  A
C1991      C1992   1.405       .  A
C1991      N1998   1.438       .  S
C1992      H1997   1.084       .  S
C1992      C1993   1.413       .  A
C1993      C1994   1.437       .  A
C1994      N1995   1.439       .  S
N1995      O1999   1.261       .  A
N1995      O2000   1.260       .  A
N1998      O2001   1.263       .  A
N1998      O2002   1.263       .  A
C2003      H2010   1.066       .  S
C2003      C2004   1.423       .  A
C2003      C2008   1.406       .  A
C2004      C2005   1.444       .  A
C2005      C2006   1.398       .  A
C2005      N2012   1.432       .  S
C2006      H2011   1.081       .  S
C2006      C2007   1.393       .  A
C2007      C2008   1.410       .  A
C2008      N2009   1.435       .  S
N2009      O2013   1.262       .  A
N2009      O2014   1.263       .  A
N2012      O2015   1.263       .  A
N2012      O2016   1.262       .  A
C2017      H2024   1.083       .  S
C2017      C2018   1.426       .  A
C2017      C2022   1.405       .  A
C2018      C2019   1.444       .  A
C2019      C2020   1.404       .  A
C2019      N2026   1.437       .  S
C2020      H2025   1.085       .  S
C2020      C2021   1.392       .  A
C2021      C2022   1.405       .  A
C2022      N2023   1.444       .  S
N2023      O2027   1.263       .  A
N2023      O2028   1.262   1_565  A
N2026      O2029   1.261       .  A
N2026      O2030   1.263       .  A
C2031      H2038   1.076       .  S
C2031      C2032   1.411       .  A
C2031      C2036   1.395       .  A
C2032      C2033   1.425       .  A
C2033      C2034   1.399       .  A
C2033      N2040   1.425       .  S
C2034      H2039   1.078       .  S
C2034      C2035   1.415       .  A
C2035      C2036   1.425       .  A
C2036      N2037   1.431       .  S
N2037      O2041   1.262       .  A
N2037      O2042   1.263       .  A
N2040      O2043   1.262       .  A
N2040      O2044   1.262       .  A
C2045      H2052   1.079       .  S
C2045      C2046   1.426       .  A
C2045      C2050   1.397       .  A
C2046      C2047   1.446       .  A
C2047      C2048   1.403       .  A
C2047      N2054   1.435       .  S
C2048      H2053   1.085       .  S
C2048      C2049   1.388       .  A
C2049      C2050   1.403       .  A
C2050      N2051   1.440       .  S
N2051      O2055   1.263       .  A
N2051      O2056   1.263       .  A
N2054      O2057   1.260       .  A
N2054      O2058   1.262       .  A
C2059      H2066   1.084       .  S
C2059      C2060   1.397       .  A
C2059      C2064   1.404       .  A
C2060      C2061   1.410       .  A
C2061      C2062   1.398       .  A
C2061      N2068   1.436       .  S
C2062      H2067   1.079       .  S
C2062      C2063   1.416       .  A
C2063      C2064   1.442       .  A
C2064      N2065   1.444       .  S
N2065      O2069   1.262       .  A
N2065      O2070   1.259       .  A
N2068      O2071   1.263       .  A
N2068      O2072   1.262       .  A
C2073      H2080   1.072       .  S
C2073      C2074   1.413       .  A
C2073      C2078   1.393       .  A
C2074      C2075   1.429       .  A
C2075      C2076   1.404       .  A
C2075      N2082   1.432       .  S
C2076      H2081   1.083       .  S
C2076      C2077   1.399       .  A
C2077      C2078   1.406       .  A
C2078      N2079   1.432       .  S
N2079      O2083   1.262       .  A
N2079      O2084   1.262       .  A
N2082      O2085   1.263       .  A
N2082      O2086   1.262       .  A
C2087      H2094   1.084       .  S
C2087      C2394   1.391   1_554  A
C2087      C2092   1.398       .  A
C2088      C2393   1.391       .  A
C2088      C2089   1.413       .  A
C2089      C2090   1.402       .  A
C2089      N2096   1.433       .  S
C2090      H2095   1.083       .  S
C2090      C2091   1.414       .  A
C2091      C2143   1.569       .  S
C2091      C2398   1.444       .  A
C2092      C2397   1.444   1_554  A
C2092      N2093   1.434       .  S
N2093      O2097   1.260       .  A
N2093      O2098   1.260       .  A
N2096      O2099   1.263       .  A
N2096      O2100   1.263       .  A
C2101      H2108   1.079       .  S
C2101      C2102   1.421       .  A
C2101      C2106   1.409       .  A
C2102      C2143   1.583       .  S
C2102      C2409   1.431       .  A
C2103      C2408   1.431   1_554  A
C2103      C2410   1.396   1_554  A
C2103      N2110   1.427       .  S
C2104      H2415   1.084       .  S
C2104      C2409   1.396       .  A
C2104      C2105   1.392       .  A
C2105      C2106   1.411       .  A
C2106      N2107   1.439       .  S
N2107      O2111   1.262       .  A
N2107      O2112   1.263       .  A
H2109      C2410   1.084       .  S
N2110      O2113   1.262       .  A
N2110      O2114   1.262       .  A
C2115      H2122   1.075       .  S
C2115      C2116   1.421       .  A
C2115      C2120   1.409       .  A
C2116      C2143   1.581       .  S
C2116      C2117   1.436       .  A
C2117      C2118   1.398       .  A
C2117      N2124   1.434       .  S
C2118      H2123   1.083       .  S
C2118      C2119   1.396       .  A
C2119      C2120   1.411       .  A
C2120      N2121   1.438       .  S
N2121      O2431   1.263       .  A
N2121      O2126   1.262       .  A
N2124      O2433   1.263       .  A
N2124      O2128   1.261       .  A
O2125      N2427   1.263       .  A
O2127      N2430   1.263       .  A
C2129      H2136   1.075       .  S
C2129      C2130   1.409       .  A
C2129      C2134   1.402       .  A
C2130      C2131   1.428       .  A
C2131      C2132   1.393       .  A
C2131      N2138   1.436       .  S
C2132      H2137   1.072       .  S
C2132      C2133   1.400       .  A
C2133      C2134   1.440       .  A
C2134      N2135   1.443       .  S
N2135      O2139   1.264       .  A
N2135      O2140   1.261       .  A
N2138      O2141   1.263       .  A
N2138      O2142   1.261       .  A
C2143      C2436   1.556       .  S
C2144      C2352   1.591       .  S
C2144      C2369   1.569       .  S
C2144      C2380   1.567       .  S
C2144      C2439   1.586       .  S
C2145      C2299   1.563       .  S
C2145      C2310   1.597       .  S
C2145      C2324   1.601       .  S
C2145      C2338   1.572       .  S
C2146      C2257   1.567       .  S
C2146      C2271   1.577       .  S
C2146      C2282   1.573       .  S
C2146      C2341   1.581       .  S
C2147      N2165   1.353       .  A
C2147      C2184   1.460       .  S
C2147      C2425   1.487       .  S
N2148      N2165   1.327       .  A
N2148      N2170   1.319       .  A
C2149      N2174   1.336       .  A
C2149      C2187   1.455       .  S
C2149      H2194   1.080       .  S
H2150      C2191   1.082       .  S
C2151      N2175   1.340       .  A
C2151      H2180   1.081       .  S
Co2152     N2160   2.075       .  S
Co2152     N2168   2.093       .  S
N2153      C2191   1.339       .  A
N2153      N2160   1.321       .  A
N2153     Co2154   2.081       .  S
Co2154     N2157   2.099       .  S
Co2154     N2174   2.070       .  S
C2155      C2230   1.477       .  S
N2156      N2163   1.320       .  A
N2156      N2186   1.325       .  A
N2156     Co2189   2.083       .  S
N2157      N2193   1.329       .  A
N2158      C2187   1.356       .  A
N2158      N2168   1.324       .  A
H2159      C2184   1.081       .  S
N2160      N2181   1.322       .  A
N2161      N2179   1.317       .  A
N2161      N2166   1.323       .  A
C2162      N2166   1.348       .  A
C2162      C2190   1.467       .  S
C2162      C2313   1.486       .  S
N2163      C2178   1.339       .  A
N2163     Co2185   2.088       .  S
C2164      N2192   1.344       .  A
C2164      H2198   1.081       .  S
C2167      N2188   1.353       .  A
C2167      C2236   1.485       .  S
N2168      N2174   1.320       .  A
N2169      C2195   1.339       .  A
N2169      N2171   1.320       .  A
N2169     Co2185   2.087       .  S
N2170      C2184   1.339       .  A
N2171      N2199   1.324       .  A
N2171     Co2189   2.079       .  S
H2173      C2190   1.080       .  S
N2175     Co2189   2.083       .  S
N2176      N2188   1.330       .  A
C2177      N2181   1.344       .  A
C2177      C2191   1.461       .  S
C2177      C2296   1.471       .  S
C2178      C2197   1.458       .  S
C2178      H2182   1.081       .  S
N2179      C2190   1.339       .  A
C2183      N2199   1.348       .  A
C2183      C2195   1.465       .  S
C2183      C2411   1.479       .  S
N2186      C2197   1.350       .  A
C2187      C2394   1.482       .  S
C2197      C2327   1.470       .  S
C2200      N2218   1.347       .  A
C2200      C2237   1.463       .  S
C2200      C2285   1.470       .  S
N2201      N2218   1.323       .  A
N2201      N2223   1.321       .  A
N2201     Co2238   2.085       .  S
C2202      N2227   1.340       .  A
C2202      C2240   1.462       .  S
C2202      H2247   1.080       .  S
H2203      C2244   1.081       .  S
C2204      N2228   1.338       .  A
C2204      C2208   1.458       .  S
C2204      H2233   1.080       .  S
Co2205     N2223   2.086       .  S
Co2205     N2213   2.092       .  S
Co2205     N2245   2.068       .  S
N2206      C2244   1.345       .  A
N2206     Co2207   2.089       .  S
Co2207     N2210   2.087       .  S
Co2207     N2214   2.074       .  S
C2208      N2246   1.354       .  A
C2208      C2254   1.483       .  S
N2209      N2216   1.319       .  A
N2209      N2239   1.321       .  A
N2210      N2228   1.319       .  A
N2210      N2246   1.324       .  A
N2211      C2240   1.354       .  A
N2211      N2221   1.327       .  A
H2212      C2237   1.082       .  S
N2213      N2234   1.326       .  A
N2214      N2232   1.320       .  A
N2214      N2219   1.320       .  A
C2215      N2219   1.345       .  A
C2215      C2243   1.459       .  S
C2215      C2355   1.463       .  S
N2216      C2231   1.342       .  A
C2217      N2245   1.334       .  A
C2217      C2220   1.453       .  S
C2217      H2251   1.081       .  S
C2220      N2241   1.356       .  A
C2220      C2366   1.480       .  S
N2221      N2227   1.319       .  A
N2222      C2248   1.349       .  A
N2222     Co2238   2.112       .  S
N2223      C2237   1.342       .  A
N2224      N2252   1.326       .  A
N2224     Co2242   2.090       .  S
H2225      C2248   1.081       .  S
H2226      C2243   1.082       .  S
N2228     Co2242   2.080       .  S
N2229      N2241   1.327       .  A
N2229      N2245   1.321       .  A
N2229     Co2238   2.099       .  S
C2231      C2250   1.462       .  S
C2231      H2235   1.081       .  S
N2232      C2243   1.341       .  A
N2232     Co2242   2.075       .  S
C2236      C2248   1.469       .  S
N2239      C2250   1.345       .  A
C2240      C2268   1.488       .  S
C2250      C2383   1.475       .  S
C2253      H2260   1.082       .  S
C2253      C2254   1.403       .  A
C2253      C2258   1.406       .  A
C2254      C2255   1.404       .  A
C2255      C2256   1.397       .  A
C2255      N2262   1.437       .  S
C2256      H2261   1.067       .  S
C2256      C2257   1.416       .  A
C2257      C2258   1.433       .  A
C2258      N2259   1.437       .  S
N2259      O2263   1.262       .  A
N2259      O2264   1.261       .  A
N2262      O2265   1.263       .  A
N2262      O2266   1.263       .  A
C2267      H2274   1.083       .  S
C2267      C2268   1.398       .  A
C2267      C2272   1.401       .  A
C2268      C2269   1.414       .  A
C2269      C2270   1.406       .  A
C2269      N2276   1.437       .  S
C2270      H2275   1.078       .  S
C2270      C2271   1.416       .  A
C2271      C2272   1.431       .  A
C2272      N2273   1.430       .  S
N2273      O2277   1.261       .  A
N2273      O2278   1.262       .  A
N2276      O2279   1.263       .  A
N2276      O2280   1.263       .  A
C2281      H2288   1.083       .  S
C2281      C2282   1.423       .  A
C2281      C2286   1.404       .  A
C2282      C2283   1.438       .  A
C2283      C2284   1.401       .  A
C2283      N2290   1.433       .  S
C2284      H2289   1.085       .  S
C2284      C2285   1.395       .  A
C2285      C2286   1.407       .  A
C2286      N2287   1.444       .  S
N2287      O2292   1.262       .  A
N2290      O2293   1.263       .  A
N2290      O2294   1.261       .  A
C2295      H2302   1.084       .  S
C2295      C2296   1.390       .  A
C2295      C2300   1.397       .  A
C2296      C2297   1.412       .  A
C2297      C2298   1.405       .  A
C2297      N2304   1.438       .  S
C2298      H2303   1.084       .  S
C2298      C2299   1.413       .  A
C2299      C2300   1.437       .  A
C2300      N2301   1.439       .  S
N2301      O2305   1.261       .  A
N2301      O2306   1.260       .  A
N2304      O2307   1.263       .  A
N2304      O2308   1.263       .  A
C2309      H2316   1.066       .  S
C2309      C2310   1.423       .  A
C2309      C2314   1.406       .  A
C2310      C2311   1.444       .  A
C2311      C2312   1.398       .  A
C2311      N2318   1.432       .  S
C2312      H2317   1.081       .  S
C2312      C2313   1.393       .  A
C2313      C2314   1.410       .  A
C2314      N2315   1.435       .  S
N2315      O2319   1.262       .  A
N2315      O2320   1.263       .  A
N2318      O2321   1.263       .  A
N2318      O2322   1.262       .  A
C2323      H2330   1.083       .  S
C2323      C2324   1.426       .  A
C2323      C2328   1.405       .  A
C2324      C2325   1.444       .  A
C2325      C2326   1.404       .  A
C2325      N2332   1.437       .  S
C2326      H2331   1.085       .  S
C2326      C2327   1.392       .  A
C2327      C2328   1.405       .  A
C2328      N2329   1.444       .  S
N2329      O2333   1.263       .  A
N2329      O2334   1.262   1_565  A
N2332      O2335   1.261       .  A
N2332      O2336   1.263       .  A
C2337      H2344   1.076       .  S
C2337      C2338   1.411       .  A
C2337      C2342   1.395       .  A
C2338      C2339   1.425       .  A
C2339      C2340   1.399       .  A
C2339      N2346   1.425       .  S
C2340      H2345   1.078       .  S
C2340      C2341   1.415       .  A
C2341      C2342   1.425       .  A
C2342      N2343   1.431       .  S
N2343      O2347   1.262       .  A
N2343      O2348   1.263       .  A
N2346      O2349   1.262       .  A
N2346      O2350   1.262       .  A
C2351      H2358   1.079       .  S
C2351      C2352   1.426       .  A
C2351      C2356   1.397       .  A
C2352      C2353   1.446       .  A
C2353      C2354   1.403       .  A
C2353      N2360   1.435       .  S
C2354      H2359   1.085       .  S
C2354      C2355   1.388       .  A
C2355      C2356   1.403       .  A
C2356      N2357   1.440       .  S
N2357      O2361   1.263       .  A
N2357      O2362   1.263       .  A
N2360      O2363   1.260       .  A
N2360      O2364   1.262       .  A
C2365      H2372   1.084       .  S
C2365      C2366   1.397       .  A
C2365      C2370   1.404       .  A
C2366      C2367   1.410       .  A
C2367      C2368   1.398       .  A
C2367      N2374   1.436       .  S
C2368      H2373   1.079       .  S
C2368      C2369   1.416       .  A
C2369      C2370   1.442       .  A
C2370      N2371   1.444       .  S
N2371      O2375   1.262       .  A
N2371      O2376   1.259       .  A
N2374      O2377   1.263       .  A
N2374      O2378   1.262       .  A
C2379      H2386   1.072       .  S
C2379      C2380   1.413       .  A
C2379      C2384   1.393       .  A
C2380      C2381   1.429       .  A
C2381      C2382   1.404       .  A
C2381      N2388   1.432       .  S
C2382      H2387   1.083       .  S
C2382      C2383   1.399       .  A
C2383      C2384   1.406       .  A
C2384      N2385   1.432       .  S
N2385      O2389   1.262       .  A
N2385      O2390   1.262       .  A
N2388      O2391   1.263       .  A
N2388      O2392   1.262       .  A
C2393      H2400   1.084       .  S
C2393      C2398   1.398       .  A
C2394      C2395   1.413       .  A
C2395      C2396   1.402       .  A
C2395      N2402   1.433       .  S
C2396      H2401   1.083       .  S
C2396      C2397   1.414       .  A
C2398      N2399   1.434       .  S
N2399      O2403   1.260       .  A
N2399      O2404   1.260       .  A
N2402      O2405   1.263       .  A
N2402      O2406   1.263       .  A
C2407      H2414   1.079       .  S
C2407      C2408   1.421       .  A
C2407      C2412   1.409       .  A
C2409      N2416   1.427       .  S
C2410      C2411   1.392       .  A
C2411      C2412   1.411       .  A
C2412      N2413   1.439       .  S
N2413      O2417   1.262       .  A
N2413      O2418   1.263       .  A
N2416      O2419   1.262       .  A
N2416      O2420   1.262       .  A
C2421      H2428   1.075       .  S
C2421      C2422   1.421       .  A
C2421      C2426   1.409       .  A
C2422      C2423   1.436   1_556  A
C2423      C2424   1.398   1_554  A
C2423      N2430   1.434       .  S
C2424      H2429   1.083   1_556  S
C2424      C2425   1.396       .  A
C2425      C2426   1.411       .  A
C2426      N2427   1.438       .  S
N2427      O2432   1.262       .  A
N2430      O2434   1.261       .  A
C2435      H2442   1.075       .  S
C2435      C2436   1.409       .  A
C2435      C2440   1.402       .  A
C2436      C2437   1.428       .  A
C2437      C2438   1.393       .  A
C2437      N2444   1.436       .  S
C2438      H2443   1.072       .  S
C2438      C2439   1.400       .  A
C2439      C2440   1.440       .  A
C2440      N2441   1.443       .  S
N2441      O2445   1.264       .  A
N2441      O2446   1.261       .  A
N2444      O2447   1.263       .  A
N2444      O2448   1.261       .  A
