geometry optimzed in LAMMPS
_audit_creation_date              2020-11-30 
_audit_creation_method            'lammps2cif' 
_symmetry_space_group_name_H-M    'P1' 
_symmetry_Int_Tables_number       1 
_symmetry_cell_setting            triclinic 
loop_ 
_symmetry_equiv_pos_as_xyz 
  x,y,z 
_cell_length_a                    53.56839767410957 
_cell_length_b                    53.97195737555215 
_cell_length_c                    28.850387497225285 
_cell_angle_alpha                 89.91403431827766 
_cell_angle_beta                  93.32124416638075 
_cell_angle_gamma                 116.52946956751076 
loop_ 
_atom_site_label 
_atom_site_type_symbol 
_atom_site_fract_x 
_atom_site_fract_y 
_atom_site_fract_z 
_atom_site_charge 
N1          N  0.43868147  0.48567323  0.95349244    -0.05840
N2          N  0.41480822  0.47646959  0.97381225    -0.57960
N3          N  0.99489664  0.01200500  0.88765579    -0.05600
N4          N  0.00347538  0.02152075  0.84641957    -0.60090
N5          N  0.48280027  0.48471055  0.88692410    -0.05120
N6          N  0.48285432  0.47524176  0.84446739    -0.57930
N7          N  0.45091415  0.01300242  0.95350096    -0.04790
N8          N  0.43541659  0.02261597  0.97396103    -0.60440
C9          C  0.41302706  0.49962372  0.98611405     0.96340
C10         C  0.99598276  0.99852735  0.81985966     0.96120
N11         N  0.05752776  0.06331981  0.98766822    -0.06020
N12         N  0.08340872  0.08297638  0.98628362    -0.58540
N13         N  0.49737147  0.06267827  0.00727715    -0.04140
N14         N  0.49260242  0.08430589  0.00074295    -0.59790
N15         N  0.01389109  0.06625782  0.04492839    -0.06050
N16         N  0.02160435  0.09140878  0.06316407    -0.58800
N17         N  0.04274806  0.06233638  0.94900631    -0.03790
N18         N  0.05850548  0.08187748  0.92079083    -0.59880
Mn19       Mn  0.99618227  0.03736557  0.94789358     1.18440
C20         C  0.08401033  0.09418287  0.94432523     0.98420
C21         C  0.50742729  0.10199505  0.03566781     0.99080
N22         N  0.48615553  0.43676723  0.95499984    -0.06070
N23         N  0.47819451  0.41143073  0.93736560    -0.62380
N24         N  0.45761543  0.44081654  0.05107064    -0.04880
N25         N  0.44204745  0.42156778  0.07984620    -0.63060
N26         N  0.44261479  0.43962834  0.01257866    -0.05580
N27         N  0.41673290  0.42001586  0.01459635    -0.62650
N28         N  0.00296990  0.44058062  0.99241187    -0.04480
N29         N  0.00770700  0.41895494  0.99917816    -0.63340
Mn30       Mn  0.46230545  0.46154168  0.94989170     1.10660
C31         C  0.99250775  0.40097634  0.96484354     0.99640
C32         C  0.41641497  0.40912863  0.05682531     0.99720
N33         N  0.01717781  0.01833075  0.11292816    -0.05590
N34         N  0.01708328  0.02779354  0.15535689    -0.60960
N35         N  0.04938624  0.49024847  0.04637443    -0.04910
N36         N  0.06505815  0.48078704  0.02608193    -0.57690
N37         N  0.06137679  0.01741594  0.04664729    -0.06220
N38         N  0.08538786  0.02673520  0.02676170    -0.60530
N39         N  0.50522967  0.49103482  0.11219075    -0.05200
N40         N  0.49665827  0.48146660  0.15340788    -0.57710
Mn41       Mn  0.03769248  0.04145379  0.05010280     1.20190
Mn42       Mn  0.50409511  0.46583724  0.05184871     1.10090
Cl43       Cl  0.99997716  0.00153253  0.99988798    -0.85680
C44         C  0.50397299  0.50443691  0.17995120     0.96650
C45         C  0.08726703  0.00364345  0.01442380     0.96450
N46         N  0.99255892  0.01297476  0.38850104    -0.05840
N47         N  0.00089194  0.02269387  0.34724905    -0.57960
N48         N  0.43731809  0.48655240  0.45730849    -0.05520
N49         N  0.41375578  0.47732057  0.47859523    -0.60090
N50         N  0.44971175  0.01381895  0.45796961    -0.05120
N51         N  0.43466959  0.02346165  0.47986374    -0.57930
N52         N  0.48015888  0.48567541  0.38737193    -0.04790
N53         N  0.47980493  0.47631833  0.34466170    -0.60440
C54         C  0.99299328  0.99977226  0.32026396     0.96340
C55         C  0.41232677  0.00047444  0.49220004     0.96120
N56         N  0.45880761  0.44123576  0.55108150    -0.06020
N57         N  0.44371884  0.42171359  0.57996310    -0.58540
N58         N  0.48411566  0.43789859  0.45387515    -0.04140
N59         N  0.47143899  0.41095352  0.44413350    -0.59790
N60         N  0.00368032  0.44288873  0.48750847    -0.06050
N61         N  0.00619249  0.42040482  0.49728933    -0.58800
N62         N  0.44286013  0.44084687  0.51431668    -0.03790
N63         N  0.41695679  0.42154375  0.51752093    -0.59880
Mn64       Mn  0.46090145  0.46273681  0.45119535     1.18440
C65         C  0.41749027  0.40996930  0.55876612     0.98420
C66         C  0.98560401  0.40056301  0.47152797     0.99080
N67         N  0.99695767  0.06100045  0.51193281    -0.06070
N68         N  0.49433689  0.08349508  0.50275428    -0.62380
N69         N  0.05754339  0.06281095  0.48608327    -0.04880
N70         N  0.08345465  0.08216317  0.48349774    -0.63060
N71         N  0.04184100  0.06250695  0.44901972    -0.05580
N72         N  0.05713501  0.08225306  0.42062014    -0.62650
N73         N  0.01602363  0.06561866  0.54626945    -0.04480
N74         N  0.02816378  0.09236488  0.55759612    -0.63340
Mn75       Mn  0.99500666  0.03744897  0.45046850     1.10660
C76         C  0.51417527  0.10296128  0.53021240     0.99640
C77         C  0.08322288  0.09393747  0.44240372     0.99720
N78         N  0.05084064  0.49008752  0.54175048    -0.05590
N79         N  0.06605276  0.48066287  0.51983856    -0.60960
N80         N  0.02010349  0.01785622  0.61263160    -0.04910
N81         N  0.02029732  0.02706205  0.65538730    -0.57690
N82         N  0.00789991  0.49059297  0.61131870    -0.06220
N83         N  0.49952092  0.48073177  0.65247786    -0.60530
N84         N  0.06315524  0.01734751  0.54289857    -0.05200
N85         N  0.08683289  0.02681723  0.52193390    -0.57710
Mn86       Mn  0.00557916  0.46633100  0.54918694     1.20190
Mn87       Mn  0.03937681  0.04092059  0.54898296     1.10090
Cl88       Cl  0.00021152  0.00186509  0.49995203    -0.85680
C89         C  0.08840457  0.00380747  0.50801862     0.96650
C90         C  0.50721703  0.50356391  0.67960041     0.96450
N91         N  0.06074244  0.27056063  0.06464816    -0.05840
N92         N  0.08009328  0.27278304  0.09745413    -0.57960
N93         N  0.06033527  0.30426410  0.97064217    -0.05520
N94         N  0.08506223  0.32296511  0.95844547    -0.60090
N95         N  0.05314702  0.31407660  0.00662708    -0.05120
N96         N  0.07159665  0.33947695  0.01763632    -0.57930
N97         N  0.06421913  0.25937700  0.02661108    -0.04790
N98         N  0.08532317  0.25332907  0.03262147    -0.60440
C99         C  0.09478892  0.26135768  0.07682441     0.96340
C100        C  0.09125687  0.34487232  0.98769368     0.96120
N101        N  0.49165016  0.24149483  0.88991121    -0.06020
N102        N  0.48104056  0.24182813  0.84785974    -0.58540
N103        N  0.02533988  0.21322868  0.95867761    -0.04140
N104        N  0.03751376  0.19900599  0.97888754    -0.59790
N105        N  0.49823121  0.19758453  0.95256911    -0.06050
N106        N  0.49158342  0.17253069  0.96813205    -0.58800
N107        N  0.01873574  0.25742778  0.89364687    -0.03790
N108        N  0.02722685  0.26894584  0.85322469    -0.59880
Mn109      Mn  0.04262923  0.25871454  0.96038901     1.18440
C110        C  0.00320486  0.25907821  0.82550629     0.98420
C111        C  0.51620799  0.17361541  0.98396186     0.99080
N112        N  0.00112121  0.30646515  0.05311809    -0.06070
N113        N  0.00779499  0.33134011  0.03667801    -0.62380
N114        N  0.48052178  0.24671269  0.11251027    -0.04880
N115        N  0.47196777  0.23534535  0.15301144    -0.63060
N116        N  0.00760842  0.26260597  0.11621169    -0.05580
N117        N  0.01814906  0.26241388  0.15838125    -0.62650
N118        N  0.47402134  0.29084538  0.04709031    -0.04480
N119        N  0.46191786  0.30488255  0.02599852    -0.63340
Mn120      Mn  0.03058178  0.28854224  0.06141607     1.10660
C121        C  0.48323374  0.33017399  0.02031365     0.99640
C122        C  0.49595565  0.24527963  0.18082877     0.99720
N123        N  0.44639692  0.18997835  0.99961696    -0.05590
N124        N  0.42786909  0.16469872  0.98808206    -0.60960
N125        N  0.43509690  0.24462331  0.97948608    -0.04910
N126        N  0.41385082  0.25045708  0.97355919    -0.57690
N127        N  0.43853993  0.23336039  0.94152145    -0.06220
N128        N  0.41902535  0.23086840  0.90884664    -0.60530
N129        N  0.43891994  0.19978435  0.03528529    -0.05200
N130        N  0.41386501  0.18124132  0.04648315    -0.57710
Mn131      Mn  0.46880004  0.21550857  0.94470235     1.20190
Mn132      Mn  0.45670081  0.24536701  0.04565273     1.10090
Cl133      Cl  0.49968662  0.25203725  0.00305474    -0.85680
C134        C  0.40779392  0.15941472  0.01710959     0.96650
C135        C  0.40426779  0.24222035  0.92947220     0.96450
N136        N  0.50253498  0.19575652  0.47112346    -0.05840
N137        N  0.51149601  0.17918562  0.45175949    -0.57960
N138        N  0.45365519  0.19182034  0.54035366    -0.05520
N139        N  0.43377467  0.16965375  0.55842912    -0.60090
N140        N  0.44686764  0.19254994  0.49598030    -0.05120
N141        N  0.42250323  0.17238831  0.48341781    -0.57930
N142        N  0.51063829  0.19934691  0.51547745    -0.04790
N143        N  0.02605537  0.18694002  0.52672388    -0.60440
C144        C  0.02680728  0.17469083  0.48720531     0.96340
C145        C  0.41448398  0.15845593  0.52207115     0.96120
N146        N  0.99750993  0.26864869  0.61652777    -0.06020
N147        N  0.99916539  0.27982953  0.65790175    -0.58540
N148        N  0.04228413  0.24470781  0.58585359    -0.04140
N149        N  0.06225277  0.23658023  0.58767942    -0.59790
N150        N  0.05307627  0.27177020  0.58318185    -0.06050
N151        N  0.08072794  0.28252084  0.58287558    -0.58800
N152        N  0.48719211  0.24153546  0.61886003    -0.03790
N153        N  0.48199879  0.23401609  0.66226963    -0.59880
Mn154      Mn  0.49762970  0.21872418  0.56630571     1.18440
C155        C  0.48903082  0.25806937  0.68589000     0.98420
C156        C  0.08619310  0.26031362  0.58657823     0.99080
N157        N  0.44663864  0.23298511  0.42347858    -0.06070
N158        N  0.41899799  0.22218698  0.42391745    -0.62380
N159        N  0.01243083  0.26318673  0.38758470    -0.04880
N160        N  0.01740823  0.27065652  0.34409642    -0.63060
N161        N  0.50211076  0.23607076  0.38999002    -0.05580
N162        N  0.50025016  0.22484015  0.34857877    -0.62650
N163        N  0.45739744  0.26003950  0.42078907    -0.04480
N164        N  0.43739696  0.26812439  0.41909560    -0.63340
Mn165      Mn  0.47460634  0.21382798  0.44433735     1.10660
C166        C  0.41348884  0.24435805  0.42028141     0.99640
C167        C  0.01023904  0.24657575  0.32046791     0.99720
N168        N  0.05283996  0.31232884  0.51068361    -0.05590
N169        N  0.07745293  0.33220123  0.52293970    -0.60960
N170        N  0.48906509  0.30535125  0.49108113    -0.04910
N171        N  0.47352340  0.31759119  0.47966974    -0.57690
N172        N  0.99717150  0.30907877  0.53543490    -0.06220
N173        N  0.98814580  0.32567109  0.55458095    -0.60530
N174        N  0.04613310  0.31278784  0.46619596    -0.05200
N175        N  0.06639198  0.33441410  0.44761321    -0.57710
Mn176      Mn  0.02510353  0.29100593  0.56232675     1.20190
Mn177      Mn  0.50209178  0.28599188  0.44027139     1.10090
Cl178      Cl  0.49986390  0.25239126  0.50331081    -0.85680
C179        C  0.08575763  0.34561096  0.48388162     0.96650
C180        C  0.47274171  0.32996528  0.51901076     0.96450
N181        N  0.26357741  0.05284698  0.07786074    -0.05840
N182        N  0.27301821  0.08006003  0.07958688    -0.57960
N183        N  0.23819262  0.48818639  0.11458591    -0.05520
N184        N  0.22952454  0.48182955  0.15684075    -0.60090
N185        N  0.26584415  0.00060046  0.11622234    -0.05120
N186        N  0.27614148  0.00274348  0.15946034    -0.57930
N187        N  0.23611052  0.04046562  0.07493077    -0.04790
N188        N  0.22632183  0.05910677  0.07448092    -0.60440
C189        C  0.24963893  0.08370127  0.07809971     0.96340
C190        C  0.25329687  0.49055321  0.18423866     0.96120
N191        N  0.19343630  0.44492894  0.99102416    -0.06020
N192        N  0.17747099  0.41880246  0.98068106    -0.58540
N193        N  0.19023304  0.00411548  0.00191970    -0.04140
N194        N  0.17063637  0.01150754  0.00968374    -0.59790
N195        N  0.18835697  0.49586361  0.95837594    -0.06050
N196        N  0.16638141  0.49669863  0.93604539    -0.58800
N197        N  0.19169000  0.45108706  0.03438143    -0.03790
N198        N  0.17311538  0.42872607  0.05406183    -0.59880
Mn199      Mn  0.21361016  0.99554796  0.05751612     1.18440
C200        C  0.16521617  0.40879412  0.01991312     0.98420
C201        C  0.15611783  0.00711865  0.96872931     0.99080
N202        N  0.31274044  0.00831554  0.04408692    -0.06070
N203        N  0.33483041  0.00753384  0.06614570    -0.62380
N204        N  0.30897185  0.05304376  0.96825205    -0.04880
N205        N  0.32704976  0.07565096  0.94841305    -0.63060
N206        N  0.30720469  0.05908432  0.01166205    -0.05580
N207        N  0.32260602  0.08531271  0.02189968    -0.62650
N208        N  0.31078110  0.00003871  0.00058312    -0.04480
N209        N  0.33018721  0.49248363  0.99258494    -0.63340
Mn210      Mn  0.28771619  0.02994890  0.06345056     1.10660
C211        C  0.34482664  0.49685019  0.03338671     0.99640
C212        C  0.33457067  0.09554779  0.98256829     0.99720
N213        N  0.23507475  0.50329978  0.88632930    -0.05590
N214        N  0.22480351  0.50109392  0.84305854    -0.60960
N215        N  0.26470068  0.46344943  0.92804490    -0.04910
N216        N  0.27439326  0.44472625  0.92924260    -0.57690
N217        N  0.23722966  0.45112609  0.92510232    -0.06220
N218        N  0.22769970  0.42391048  0.92405837    -0.60530
N219        N  0.26265808  0.01575173  0.88801172    -0.05200
N220        N  0.27134225  0.02208312  0.84575960    -0.57710
Mn221      Mn  0.21317935  0.47406665  0.93923464     1.20190
Mn222      Mn  0.28732784  0.00852872  0.94515827     1.10090
Cl223      Cl  0.25047863  0.00202346  0.00135994    -0.85680
C224        C  0.24757635  0.01326447  0.81832754     0.96650
C225        C  0.25100908  0.42016817  0.92599654     0.96450
N226        N  0.26380201  0.05422512  0.57545424    -0.05840
N227        N  0.27423610  0.08156315  0.57845128    -0.57960
N228        N  0.23364542  0.48944422  0.61252893    -0.05520
N229        N  0.22337038  0.48370890  0.65384524    -0.60090
N230        N  0.26115964  0.00046345  0.61684726    -0.05120
N231        N  0.26981844  0.00223153  0.66097404    -0.57930
N232        N  0.23639329  0.04291089  0.57063209    -0.04790
N233        N  0.22757094  0.06223979  0.57028624    -0.60440
C234        C  0.25137480  0.08621539  0.57576523     0.96340
C235        C  0.24610504  0.49133354  0.68348995     0.96120
N236        N  0.19124827  0.44730795  0.48693890    -0.06020
N237        N  0.17200645  0.42274733  0.47375100    -0.58540
N238        N  0.19236607  0.50898278  0.49404584    -0.04140
N239        N  0.17259624  0.01641311  0.50004021    -0.59790
N240        N  0.19060724  0.49933205  0.45147940    -0.06050
N241        N  0.16818438  0.49890943  0.42846876    -0.58800
N242        N  0.18776261  0.45434019  0.52882060    -0.03790
N243        N  0.16469967  0.43435146  0.54425818    -0.59880
Mn244      Mn  0.21222633  0.49852684  0.55244126     1.18440
C245        C  0.15583187  0.41479267  0.50938755     0.98420
C246        C  0.15778262  0.01041018  0.45925506     0.99080
N247        N  0.31046568  0.00526223  0.55076678    -0.06070
N248        N  0.33314701  0.00598035  0.57337085    -0.62380
N249        N  0.31316796  0.05000138  0.47362241    -0.04880
N250        N  0.33658508  0.06974427  0.45873035    -0.63060
N251        N  0.30944249  0.05713751  0.51527807    -0.05580
N252        N  0.32882775  0.08155700  0.52873813    -0.62650
N253        N  0.30846998  0.49537728  0.50828511    -0.04480
N254        N  0.32828030  0.48805779  0.50199094    -0.63340
Mn255      Mn  0.28633732  0.02898118  0.56547114     1.10660
C256        C  0.34342163  0.49439002  0.54244518     0.99640
C257        C  0.34538694  0.08928738  0.49361459     0.99720
N258        N  0.23976707  0.50395775  0.38549420    -0.05590
N259        N  0.23113904  0.50209898  0.34133893    -0.60960
N260        N  0.26433591  0.46143123  0.43198172    -0.04910
N261        N  0.27303489  0.44201089  0.43303565    -0.57690
N262        N  0.23693292  0.45020250  0.42707288    -0.06220
N263        N  0.22638228  0.42285341  0.42471584    -0.60530
N264        N  0.26730009  0.01493141  0.38987163    -0.05200
N265        N  0.27761598  0.02053597  0.34857439    -0.57710
Mn266      Mn  0.21451652  0.47549927  0.43684760     1.20190
Mn267      Mn  0.28861029  0.00581705  0.45002271     1.10090
Cl268      Cl  0.25042539  0.50220938  0.50119954    -0.85680
C269        C  0.25491459  0.01288369  0.31885244     0.96650
C270        C  0.24915798  0.41808900  0.42786002     0.96450
N271        N  0.18554535  0.20799577  0.95368999    -0.05840
N272        N  0.16437812  0.19103093  0.92515340    -0.57960
N273        N  0.19171492  0.24094397  0.05477873    -0.05520
N274        N  0.17643940  0.24247906  0.08800385    -0.60090
N275        N  0.19002862  0.25528662  0.01881676    -0.05120
N276        N  0.17359265  0.26691869  0.02695852    -0.57930
N277        N  0.18822714  0.19434361  0.99003642    -0.04790
N278        N  0.16933088  0.16815476  0.98678927    -0.60440
C279        C  0.15481273  0.16612993  0.94603651     0.96340
C280        C  0.16570577  0.25913635  0.07044996     0.96120
N281        N  0.26787614  0.24965588  0.11640263    -0.06020
N282        N  0.27808024  0.25765540  0.15964343    -0.58540
N283        N  0.23800695  0.19111191  0.05109565    -0.04140
N284        N  0.22819353  0.16400492  0.05497430    -0.59790
N285        N  0.26553872  0.20313933  0.05205284    -0.06050
N286        N  0.27491604  0.18425001  0.05650524    -0.58800
N287        N  0.24033634  0.23722021  0.11489999    -0.03790
N288        N  0.23127314  0.23666150  0.15652170    -0.59880
Mn289      Mn  0.21433569  0.21557711  0.05289458     1.18440
C290        C  0.25488208  0.24960922  0.18385479     0.98420
C291        C  0.25136319  0.15997502  0.05795276     0.99080
N292        N  0.23404495  0.30067496  0.95544681    -0.06070
N293        N  0.22482257  0.31967054  0.95067296    -0.62380
N294        N  0.25905758  0.26640112  0.89246039    -0.04880
N295        N  0.26810594  0.26697785  0.85082787    -0.63060
N296        N  0.23153097  0.25413806  0.89095254    -0.05580
N297        N  0.22129922  0.24624460  0.84769460    -0.62650
N298        N  0.26156565  0.31255245  0.95626293    -0.04480
N299        N  0.27153759  0.33964051  0.95204363    -0.63340
Mn300      Mn  0.20962787  0.25447169  0.95381007     1.10660
C301        C  0.24848400  0.34384142  0.94897505     0.99640
C302        C  0.24448461  0.25419457  0.82347687     0.99720
N303        N  0.30937679  0.24835008  0.98859442    -0.05590
N304        N  0.32567534  0.23657759  0.98034564    -0.60960
N305        N  0.31121419  0.30933025  0.01686721    -0.04910
N306        N  0.33027772  0.33544356  0.01927489    -0.57690
N307        N  0.31411850  0.29588809  0.05334154    -0.06220
N308        N  0.33571631  0.31296512  0.08107958    -0.60530
N309        N  0.30755327  0.26254784  0.95252435    -0.05200
N310        N  0.32259922  0.26079197  0.91911745    -0.57710
Mn311      Mn  0.28989301  0.24934236  0.05361247     1.20190
Mn312      Mn  0.28503792  0.28797077  0.95438524     1.10090
Cl313      Cl  0.24971484  0.25184199  0.00373518    -0.85680
C314        C  0.33333083  0.24414032  0.93667377     0.96650
C315        C  0.34521798  0.33770485  0.05959133     0.96450
N316        N  0.18681753  0.20649786  0.44945352    -0.05840
N317        N  0.16580379  0.18933553  0.42085493    -0.57960
N318        N  0.18774454  0.24043068  0.54667344    -0.05520
N319        N  0.16941902  0.24077710  0.57537803    -0.60090
N320        N  0.18717925  0.25390165  0.50881354    -0.05120
N321        N  0.16854546  0.26365549  0.51112999    -0.57930
N322        N  0.18836200  0.19351704  0.48744361    -0.04790
N323        N  0.16883045  0.16755317  0.48519414    -0.60440
C324        C  0.15512914  0.16494951  0.44336706     0.96340
C325        C  0.15784090  0.25564052  0.55302795     0.96120
N326        N  0.26407041  0.25202612  0.61775050    -0.06020
N327        N  0.27278673  0.26031115  0.66142056    -0.58540
N328        N  0.23762617  0.19280029  0.55460432    -0.04140
N329        N  0.22846485  0.16566847  0.55712866    -0.59790
N330        N  0.26520946  0.20545907  0.55781746    -0.06050
N331        N  0.27523144  0.18710282  0.56246474    -0.58800
N332        N  0.23649315  0.23928306  0.61378855    -0.03790
N333        N  0.22602539  0.23880982  0.65416567    -0.59880
Mn334      Mn  0.21246965  0.21625416  0.55110129     1.18440
C335        C  0.24875191  0.25217406  0.68327391     0.98420
C336        C  0.25210417  0.16243321  0.56182752     0.99080
N337        N  0.23452283  0.29887100  0.44959368    -0.06070
N338        N  0.22459929  0.31728325  0.44458021    -0.62380
N339        N  0.26309505  0.26489235  0.39350928    -0.04880
N340        N  0.27351704  0.26527651  0.35312081    -0.63060
N341        N  0.23552739  0.25228793  0.38958748    -0.05580
N342        N  0.22674903  0.24397154  0.34595381    -0.62650
N343        N  0.26210043  0.31142850  0.45264309    -0.04480
N344        N  0.27137545  0.33854263  0.44969157    -0.63340
Mn345      Mn  0.21067936  0.25291099  0.44835416     1.10660
C346        C  0.24780583  0.34187514  0.44489915     0.99640
C347        C  0.25075008  0.25197395  0.32406084     0.99720
N348        N  0.31248020  0.25039102  0.49857771    -0.05590
N349        N  0.33117316  0.24071285  0.49628287    -0.60960
N350        N  0.31128648  0.31076664  0.51942574    -0.04910
N351        N  0.33100083  0.33662548  0.52082313    -0.57690
N352        N  0.31308941  0.29799282  0.55753448    -0.06220
N353        N  0.33458320  0.31524503  0.58530167    -0.60530
N354        N  0.31179719  0.26374213  0.46062949    -0.05200
N355        N  0.33009645  0.26340110  0.43188766    -0.57710
Mn356      Mn  0.28904188  0.25146687  0.55902756     1.20190
Mn357      Mn  0.28711493  0.28790602  0.45612372     1.10090
Cl358      Cl  0.24982644  0.25213949  0.50368503    -0.85680
C359        C  0.34177813  0.24865804  0.45429855     0.96650
C360        C  0.34518679  0.33945521  0.56217939     0.96450
C361        C  0.24708131  0.25328809  0.73259103    -0.12990
C362        C  0.24469704  0.25292758  0.77388691    -0.14550
C363        C  0.25467926  0.25100243  0.23343808    -0.12990
C364        C  0.25235862  0.25075870  0.27474481    -0.14550
C365        C  0.24757035  0.36838561  0.43813553    -0.12990
C366        C  0.24801123  0.39086820  0.43258123    -0.14550
C367        C  0.25251403  0.13590089  0.56762018    -0.12990
C368        C  0.25232144  0.11344033  0.57219717    -0.14550
C369        C  0.24590630  0.49826539  0.73118409    -0.12990
C370        C  0.24662940  0.00637330  0.77026917    -0.14550
C371        C  0.25429437  0.49751658  0.23226636    -0.12990
C372        C  0.25513239  0.00577296  0.27126388    -0.14550
C373        C  0.24924710  0.37065101  0.94032576    -0.12990
C374        C  0.25058272  0.39335518  0.93289232    -0.14550
C375        C  0.24986695  0.11052123  0.07230782    -0.12990
C376        C  0.25085194  0.13317758  0.06575686    -0.14550
C377        C  0.39219431  0.13151812  0.51776563    -0.12990
C378        C  0.37234648  0.11145349  0.50188675    -0.14550
C379        C  0.10882775  0.37210265  0.48723810    -0.12990
C380        C  0.12903736  0.39221366  0.50199918    -0.14550
C381        C  0.36553350  0.24529349  0.43861060    -0.12990
C382        C  0.38660064  0.24379565  0.42835378    -0.14550
C383        C  0.13412146  0.25913023  0.56867064    -0.12990
C384        C  0.11308956  0.26078465  0.57874224    -0.14550
C385        C  0.50097613  0.26261601  0.77643039    -0.12990
C386        C  0.49503329  0.26118949  0.73525422    -0.14550
C387        C  0.00409049  0.24340747  0.27111373    -0.12990
C388        C  0.49816085  0.24190895  0.22995054    -0.14550
C389        C  0.35921789  0.12092777  0.98597586    -0.12990
C390        C  0.38037267  0.13931441  0.00270633    -0.14550
C391        C  0.14015883  0.38377991  0.01655115    -0.12990
C392        C  0.11872059  0.36537129  0.00076488    -0.14550
C393        C  0.37769270  0.24022835  0.91306233    -0.12990
C394        C  0.35566412  0.24074648  0.91699688    -0.14550
C395        C  0.12120679  0.26302142  0.09347868    -0.12990
C396        C  0.14321712  0.26239542  0.08986250    -0.14550
C397        C  0.39372683  0.38484221  0.57257446    -0.12990
C398        C  0.37186285  0.36361351  0.57363358    -0.14550
C399        C  0.12882918  0.14069991  0.43040517    -0.12990
C400        C  0.10701163  0.11934688  0.42978425    -0.14550
C401        C  0.39198375  0.00037590  0.52290180    -0.12990
C402        C  0.37168655  0.49835709  0.54191353    -0.14550
C403        C  0.12953619  0.00648946  0.45916016    -0.12990
C404        C  0.10901137  0.00423127  0.47767925    -0.14550
C405        C  0.97269905  0.37413639  0.49169906    -0.12990
C406        C  0.46876463  0.35393831  0.51343428    -0.14550
C407        C  0.02684875  0.13001648  0.51241196    -0.12990
C408        C  0.03077035  0.15068752  0.49218389    -0.14550
C409        C  0.00345070  0.50226800  0.72910550    -0.12990
C410        C  0.99975660  0.99952072  0.77036855    -0.14550
C411        C  0.50017164  0.00345297  0.22943186    -0.12990
C412        C  0.99664374  0.00089995  0.27073068    -0.14550
C413        C  0.37141317  0.36222425  0.07133023    -0.12990
C414        C  0.39281270  0.38384269  0.07024570    -0.14550
C415        C  0.10763353  0.11978233  0.93215101    -0.12990
C416        C  0.12898675  0.14153240  0.93277953    -0.14550
C417        C  0.39241500  0.49971388  0.01571008    -0.12990
C418        C  0.37225213  0.49868577  0.03371458    -0.14550
C419        C  0.12861346  0.00506064  0.96802035    -0.12990
C420        C  0.10818696  0.00374707  0.98543304    -0.14550
C421        C  0.98145180  0.35119049  0.99129094    -0.12990
C422        C  0.98431382  0.37202253  0.97161217    -0.14550
C423        C  0.51529933  0.13097669  0.03005704    -0.12990
C424        C  0.51805307  0.15211245  0.01160138    -0.14550
N425        N  0.43871831  0.98567681  0.95348341    -0.05840
N426        N  0.41485348  0.97647950  0.97382738    -0.57960
N427        N  0.99499940  0.51203438  0.88767191    -0.05600
N428        N  0.00355450  0.52156126  0.84642723    -0.60090
N429        N  0.48284368  0.98470861  0.88693838    -0.05120
N430        N  0.48289352  0.97523745  0.84448166    -0.57930
N431        N  0.45087588  0.51299869  0.95352370    -0.04790
N432        N  0.43536918  0.52260690  0.97397085    -0.60440
C433        C  0.41308003  0.99963729  0.98612916     0.96340
C434        C  0.99609547  0.49857346  0.81986887     0.96120
N435        N  0.05756611  0.56341058  0.98772560    -0.06020
N436        N  0.08344077  0.58307851  0.98633051    -0.58540
N437        N  0.49734994  0.56266623  0.00730408    -0.04140
N438        N  0.49257685  0.58429259  0.00078807    -0.59790
N439        N  0.01387954  0.56625883  0.04495831    -0.06050
N440        N  0.02158216  0.59141354  0.06316887    -0.58800
N441        N  0.04278668  0.56239377  0.94904737    -0.03790
N442        N  0.05853533  0.58192173  0.92080535    -0.59880
Mn443      Mn  0.99623207  0.53736608  0.94791413     1.18440
C444        C  0.08403558  0.59425534  0.94434699     0.98420
C445        C  0.50741587  0.60198380  0.03570165     0.99080
N446        N  0.48618523  0.93676502  0.95503516    -0.06070
N447        N  0.47821913  0.91142468  0.93741385    -0.62380
N448        N  0.45762968  0.94082137  0.05108449    -0.04880
N449        N  0.44206006  0.92157304  0.07985858    -0.63060
N450        N  0.44263463  0.93962795  0.01258322    -0.05580
N451        N  0.41675394  0.92001106  0.01459257    -0.62650
N452        N  0.00269476  0.94047080  0.99242379    -0.04480
N453        N  0.00738632  0.91882094  0.99920535    -0.63340
Mn454      Mn  0.46233822  0.96154184  0.94990153     1.10660
C455        C  0.99216418  0.90084700  0.96488197     0.99640
C456        C  0.41643168  0.90912774  0.05682684     0.99720
N457        N  0.01723179  0.51835262  0.11295060    -0.05590
N458        N  0.01708510  0.52779404  0.15537290    -0.60960
N459        N  0.04920430  0.99009687  0.04633075    -0.04910
N460        N  0.06485115  0.98057934  0.02610356    -0.57690
N461        N  0.06150569  0.51756663  0.04671267    -0.06220
N462        N  0.08550519  0.52694116  0.02677782    -0.60530
N463        N  0.50522673  0.99104560  0.11220509    -0.05200
N464        N  0.49664952  0.98147694  0.15341904    -0.57710
Mn465      Mn  0.03774220  0.54151935  0.05015234     1.20190
Mn466      Mn  0.50410683  0.96584531  0.05187876     1.10090
Cl467      Cl  0.00009556  0.50156535  0.99991251    -0.85680
C468        C  0.50395641  0.00444666  0.17995901     0.96650
C469        C  0.08743016  0.50388356  0.01438385     0.96450
N470        N  0.99255626  0.51295381  0.38847750    -0.05840
N471        N  0.00088436  0.52266667  0.34722020    -0.57960
N472        N  0.43730733  0.98655617  0.45731668    -0.05520
N473        N  0.41374558  0.97732410  0.47860491    -0.60090
N474        N  0.44972218  0.51381511  0.45795979    -0.05120
N475        N  0.43467930  0.52345808  0.47985119    -0.57930
N476        N  0.48014551  0.98567982  0.38737688    -0.04790
N477        N  0.47978942  0.97632343  0.34466543    -0.60440
C478        C  0.99297991  0.49974101  0.32024398     0.96340
C479        C  0.41233630  0.50047105  0.49218762     0.96120
N480        N  0.45879874  0.94123748  0.55108250    -0.06020
N481        N  0.44371146  0.92171523  0.57996504    -0.58540
N482        N  0.48410372  0.93790124  0.45387304    -0.04140
N483        N  0.47142877  0.91095627  0.44412976    -0.59790
N484        N  0.00368123  0.94289834  0.48750567    -0.06050
N485        N  0.00619475  0.92041457  0.49728114    -0.58800
N486        N  0.44284981  0.94084879  0.51432005    -0.03790
N487        N  0.41694675  0.92154551  0.51752667    -0.59880
Mn488      Mn  0.46088950  0.96273982  0.45119877     1.18440
C489        C  0.41748215  0.90997095  0.55877116     0.98420
C490        C  0.98560625  0.90057341  0.47151901     0.99080
N491        N  0.99696501  0.56099752  0.51188869    -0.06070
N492        N  0.49434179  0.58348892  0.50274864    -0.62380
N493        N  0.05754712  0.56280108  0.48604794    -0.04880
N494        N  0.08345808  0.58215450  0.48346536    -0.63060
N495        N  0.04184581  0.56249515  0.44898179    -0.05580
N496        N  0.05714064  0.58224223  0.42058360    -0.62650
N497        N  0.01602694  0.56561477  0.54623115    -0.04480
N498        N  0.02816083  0.59235919  0.55756945    -0.63340
Mn499      Mn  0.99501017  0.53743799  0.45043456     1.10660
C500        C  0.51417598  0.60295502  0.53021270     0.99640
C501        C  0.08322783  0.59392835  0.44237086     0.99720
N502        N  0.05083847  0.99009043  0.54175900    -0.05590
N503        N  0.06604988  0.98066787  0.51984002    -0.60960
N504        N  0.02011215  0.51786401  0.61260380    -0.04910
N505        N  0.02032190  0.52707970  0.65535905    -0.57690
N506        N  0.00789274  0.99058429  0.61133260    -0.06220
N507        N  0.49952020  0.98073037  0.65247716    -0.60530
N508        N  0.06315741  0.51734434  0.54288332    -0.05200
N509        N  0.08683595  0.52681257  0.52192225    -0.57710
Mn510      Mn  0.00557661  0.96633266  0.54919151     1.20190
Mn511      Mn  0.03938081  0.54091835  0.54895198     1.10090
Cl512      Cl  0.00021420  0.50185843  0.49993271    -0.85680
C513        C  0.08840763  0.50380174  0.50801574     0.96650
C514        C  0.50722101  0.00356144  0.67960381     0.96450
N515        N  0.06076888  0.77064857  0.06462780    -0.05840
N516        N  0.08012565  0.77288367  0.09743313    -0.57960
N517        N  0.06032712  0.80430819  0.97060668    -0.05520
N518        N  0.08506244  0.82300512  0.95843222    -0.60090
N519        N  0.05312393  0.81412919  0.00656540    -0.05120
N520        N  0.07157551  0.83953034  0.01757497    -0.57930
N521        N  0.06423932  0.75944671  0.02660546    -0.04790
N522        N  0.08534491  0.75340215  0.03262333    -0.60440
C523        C  0.09481965  0.76145002  0.07681632     0.96340
C524        C  0.09125128  0.84491908  0.98766216     0.96120
N525        N  0.49163114  0.74146992  0.88989357    -0.06020
N526        N  0.48102531  0.74181238  0.84784289    -0.58540
N527        N  0.02536627  0.71326109  0.95869648    -0.04140
N528        N  0.03754234  0.69903782  0.97890158    -0.59790
N529        N  0.49821239  0.69755233  0.95254002    -0.06050
N530        N  0.49156680  0.67250064  0.96811222    -0.58800
N531        N  0.01873025  0.75744191  0.89364626    -0.03790
N532        N  0.02721588  0.76896065  0.85322296    -0.59880
Mn533      Mn  0.04263647  0.75875211  0.96038662     1.18440
C534        C  0.00319307  0.75908244  0.82550640     0.98420
C535        C  0.51619191  0.67359001  0.98395207     0.99080
N536        N  0.00105002  0.80645804  0.05304330    -0.06070
N537        N  0.00765925  0.83131343  0.03656987    -0.62380
N538        N  0.48048462  0.74665696  0.11250193    -0.04880
N539        N  0.47192868  0.73529360  0.15300521    -0.63060
N540        N  0.00762881  0.76265712  0.11620335    -0.05580
N541        N  0.01818685  0.76248274  0.15836610    -0.62650
N542        N  0.47398598  0.79079695  0.04709226    -0.04480
N543        N  0.46188780  0.80484218  0.02600975    -0.63340
Mn544      Mn  0.03057008  0.78859421  0.06137249     1.10660
C545        C  0.48320691  0.83013668  0.02035213     0.99640
C546        C  0.49591597  0.74522874  0.18082495     0.99720
N547        N  0.44637347  0.68993645  0.99957718    -0.05590
N548        N  0.42786146  0.66464837  0.98805755    -0.60960
N549        N  0.43506912  0.74457912  0.97947016    -0.04910
N550        N  0.41382466  0.75041515  0.97354308    -0.57690
N551        N  0.43851680  0.73332388  0.94150044    -0.06220
N552        N  0.41900674  0.73083904  0.90882199    -0.60530
N553        N  0.43889660  0.69973290  0.03525706    -0.05200
N554        N  0.41385680  0.68117176  0.04648552    -0.57710
Mn555      Mn  0.46877783  0.71547395  0.94467340     1.20190
Mn556      Mn  0.45666741  0.74531588  0.04563962     1.10090
Cl557      Cl  0.49965647  0.75199466  0.00304395    -0.85680
C558        C  0.40779686  0.65934599  0.01711444     0.96650
C559        C  0.40424721  0.74218727  0.92945134     0.96450
N560        N  0.50252891  0.69575199  0.47113152    -0.05840
N561        N  0.51148830  0.67917947  0.45176861    -0.57960
N562        N  0.45365378  0.69182078  0.54036427    -0.05520
N563        N  0.43377669  0.66965096  0.55843878    -0.60090
N564        N  0.44686370  0.69255100  0.49599230    -0.05120
N565        N  0.42250056  0.67238727  0.48343072    -0.57930
N566        N  0.51063450  0.69934464  0.51548450    -0.04790
N567        N  0.02605547  0.68694249  0.52672322    -0.60440
C568        C  0.02680539  0.67469223  0.48720448     0.96340
C569        C  0.41448491  0.65845223  0.52208229     0.96120
N570        N  0.99751413  0.76865492  0.61652709    -0.06020
N571        N  0.99916682  0.77983570  0.65790011    -0.58540
N572        N  0.04228712  0.74471273  0.58585248    -0.04140
N573        N  0.06225501  0.73658423  0.58768024    -0.59790
N574        N  0.05307983  0.77177505  0.58317897    -0.06050
N575        N  0.08073151  0.78252479  0.58287312    -0.58800
N576        N  0.48719473  0.74154176  0.61885962    -0.03790
N577        N  0.48199938  0.73402424  0.66226928    -0.59880
Mn578      Mn  0.49762943  0.71872592  0.56630988     1.18440
C579        C  0.48903263  0.75807873  0.68588632     0.98420
C580        C  0.08619575  0.76031698  0.58657817     0.99080
N581        N  0.44663349  0.73298155  0.42348357    -0.06070
N582        N  0.41899301  0.72218461  0.42392362    -0.62380
N583        N  0.01243584  0.76318993  0.38758648    -0.04880
N584        N  0.01743400  0.77066521  0.34410601    -0.63060
N585        N  0.50210201  0.73606054  0.38999220    -0.05580
N586        N  0.50023427  0.72482404  0.34858375    -0.62650
N587        N  0.45739305  0.76003564  0.42078809    -0.04480
N588        N  0.43739344  0.76812168  0.41909180    -0.63340
Mn589      Mn  0.47460053  0.71382404  0.44434502     1.10660
C590        C  0.41348492  0.74435615  0.42028202     0.99640
C591        C  0.01027307  0.74658698  0.32047428     0.99720
N592        N  0.05284158  0.81233207  0.51067786    -0.05590
N593        N  0.07745466  0.83220524  0.52293041    -0.60960
N594        N  0.48906610  0.80535171  0.49107110    -0.04910
N595        N  0.47352574  0.81759297  0.47965891    -0.57690
N596        N  0.99717391  0.80908396  0.53543032    -0.06220
N597        N  0.98815129  0.82567978  0.55457315    -0.60530
N598        N  0.04613278  0.81278967  0.46619076    -0.05200
N599        N  0.06639004  0.83441535  0.44760460    -0.57710
Mn600      Mn  0.02510667  0.79101104  0.56232360     1.20190
Mn601      Mn  0.50208776  0.78598713  0.44026295     1.10090
Cl602      Cl  0.49986207  0.75238994  0.50330924    -0.85680
C603        C  0.08575701  0.84561359  0.48387031     0.96650
C604        C  0.47274676  0.82996971  0.51899862     0.96450
N605        N  0.26351503  0.55281222  0.07784455    -0.05840
N606        N  0.27296964  0.58002782  0.07956765    -0.57960
N607        N  0.23830430  0.98822442  0.11459692    -0.05520
N608        N  0.22963988  0.98185351  0.15684995    -0.60090
N609        N  0.26573257  0.50053745  0.11621233    -0.05120
N610        N  0.27602658  0.50267387  0.15945049    -0.57930
N611        N  0.23604826  0.54044568  0.07491178    -0.04790
N612        N  0.22627329  0.55909756  0.07445786    -0.60440
C613        C  0.24959826  0.58368487  0.07807628     0.96340
C614        C  0.25341357  0.99059764  0.18424754     0.96120
N615        N  0.19353716  0.94493306  0.99107059    -0.06020
N616        N  0.17754326  0.91881383  0.98070842    -0.58540
N617        N  0.19020027  0.50414028  0.00185783    -0.04140
N618        N  0.17066704  0.51162903  0.00957492    -0.59790
N619        N  0.18838027  0.99582716  0.95844033    -0.06050
N620        N  0.16633716  0.99655723  0.93616609    -0.58800
N621        N  0.19178181  0.95109301  0.03442343    -0.03790
N622        N  0.17317129  0.92874182  0.05407579    -0.59880
Mn623      Mn  0.21352877  0.49553431  0.05748423     1.18440
C624        C  0.16525878  0.90881063  0.01992113     0.98420
C625        C  0.15619805  0.50731169  0.96858458     0.99080
N626        N  0.31263535  0.50822086  0.04409394    -0.06070
N627        N  0.33473727  0.50745447  0.06613748    -0.62380
N628        N  0.30891993  0.55296668  0.96826943    -0.04880
N629        N  0.32702884  0.57556360  0.94844868    -0.63060
N630        N  0.30714768  0.55901067  0.01167513    -0.05580
N631        N  0.32257759  0.58523218  0.02192820    -0.62650
N632        N  0.31066715  0.49993310  0.00059403    -0.04480
N633        N  0.33029832  0.99258423  0.99258110    -0.63340
Mn634      Mn  0.28763010  0.52988101  0.06344880     1.10660
C635        C  0.34492303  0.99693368  0.03339516     0.99640
C636        C  0.33456449  0.59545888  0.98261017     0.99720
N637        N  0.23512574  0.00332629  0.88636141    -0.05590
N638        N  0.22484030  0.00110765  0.84309727    -0.60960
N639        N  0.26481098  0.96351847  0.92806276    -0.04910
N640        N  0.27451745  0.94480547  0.92926293    -0.57690
N641        N  0.23733978  0.95118115  0.92513096    -0.06220
N642        N  0.22782409  0.92396817  0.92409381    -0.60530
N643        N  0.26260693  0.51571127  0.88800434    -0.05200
N644        N  0.27130669  0.52204731  0.84576290    -0.57710
Mn645      Mn  0.21325705  0.97408367  0.93927935     1.20190
Mn646      Mn  0.28724412  0.50845479  0.94516153     1.10090
Cl647      Cl  0.25039671  0.50197912  0.00134258    -0.85680
C648        C  0.24755013  0.51324556  0.81831149     0.96650
C649        C  0.25114035  0.92023986  0.92602713     0.96450
N650        N  0.26380798  0.55422354  0.57545568    -0.05840
N651        N  0.27424132  0.58156164  0.57844962    -0.57960
N652        N  0.23363529  0.98944897  0.61253122    -0.05520
N653        N  0.22336173  0.98372065  0.65385025    -0.60090
N654        N  0.26116989  0.50046279  0.61684563    -0.05120
N655        N  0.26982768  0.50222889  0.66097274    -0.57930
N656        N  0.23639904  0.54290814  0.57063893    -0.04790
N657        N  0.22757599  0.56223666  0.57029379    -0.60440
C658        C  0.25137957  0.58621314  0.57576745     0.96340
C659        C  0.24609718  0.99134355  0.68349440     0.96120
N660        N  0.19124123  0.94731619  0.48691785    -0.06020
N661        N  0.17199860  0.92275650  0.47372755    -0.58540
N662        N  0.19236582  0.00899064  0.49402916    -0.04140
N663        N  0.17259782  0.51640752  0.50005420    -0.59790
N664        N  0.19060772  0.99934170  0.45146083    -0.06050
N665        N  0.16818215  0.99891655  0.42845411    -0.58800
N666        N  0.18775677  0.95434643  0.52880222    -0.03790
N667        N  0.16469402  0.93435725  0.54423911    -0.59880
Mn668      Mn  0.21222062  0.99853142  0.55243083     1.18440
C669        C  0.15582509  0.91480057  0.50936529     0.98420
C670        C  0.15778604  0.51040522  0.45926673     0.99080
N671        N  0.31047432  0.50526501  0.55075096    -0.06070
N672        N  0.33315526  0.50598105  0.57335342    -0.62380
N673        N  0.31316758  0.55000312  0.47360863    -0.04880
N674        N  0.33658737  0.56974420  0.45872034    -0.63060
N675        N  0.30944395  0.55713814  0.51526688    -0.05580
N676        N  0.32883209  0.58155547  0.52873027    -0.62650
N677        N  0.30846078  0.99537089  0.50830379    -0.04480
N678        N  0.32827084  0.98805053  0.50201349    -0.63340
Mn679      Mn  0.28634433  0.52898147  0.56546536     1.10660
C680        C  0.34341295  0.99438648  0.54246699     0.99640
C681        C  0.34539206  0.58928543  0.49360814     0.99720
N682        N  0.23978237  0.00396353  0.38547879    -0.05590
N683        N  0.23117139  0.00210537  0.34131373    -0.60960
N684        N  0.26433336  0.96143113  0.43198833    -0.04910
N685        N  0.27302972  0.94200884  0.43304733    -0.57690
N686        N  0.23693075  0.95020490  0.42706703    -0.06220
N687        N  0.22637786  0.92285554  0.42470696    -0.60530
N688        N  0.26728504  0.51492312  0.38986008    -0.05200
N689        N  0.27758404  0.52052110  0.34854874    -0.57710
Mn690      Mn  0.21451742  0.97550628  0.43683026     1.20190
Mn691      Mn  0.28861024  0.50581781  0.45000827     1.10090
Cl692      Cl  0.25042180  0.00221179  0.50119728    -0.85680
C693        C  0.25487119  0.51287048  0.31885076     0.96650
C694        C  0.24915193  0.91808834  0.42786222     0.96450
N695        N  0.18555924  0.70804759  0.95369157    -0.05840
N696        N  0.16439788  0.69108854  0.92514043    -0.57960
N697        N  0.19173005  0.74098834  0.05478590    -0.05520
N698        N  0.17644812  0.74252238  0.08800278    -0.60090
N699        N  0.19005573  0.75533981  0.01882787    -0.05120
N700        N  0.17362223  0.76697579  0.02696451    -0.57930
N701        N  0.18823471  0.69438809  0.99003177    -0.04790
N702        N  0.16933984  0.66819968  0.98676740    -0.60440
C703        C  0.15483002  0.66618387  0.94601003     0.96340
C704        C  0.16572330  0.75918772  0.07044864     0.96120
N705        N  0.26788470  0.74966326  0.11640612    -0.06020
N706        N  0.27809016  0.75765753  0.15964796    -0.58540
N707        N  0.23799622  0.69112042  0.05109704    -0.04140
N708        N  0.22817522  0.66401177  0.05497335    -0.59790
N709        N  0.26552792  0.70313929  0.05205219    -0.06050
N710        N  0.27489713  0.68424349  0.05649990    -0.58800
N711        N  0.24034465  0.73723850  0.11490340    -0.03790
N712        N  0.23128284  0.73668229  0.15652535    -0.59880
Mn713      Mn  0.21433968  0.71560536  0.05289735     1.18440
C714        C  0.25489281  0.74961998  0.18385914     0.98420
C715        C  0.25134025  0.65997242  0.05794783     0.99080
N716        N  0.23409633  0.80072407  0.95546321    -0.06070
N717        N  0.22489611  0.81973706  0.95069860    -0.62380
N718        N  0.25907302  0.76641877  0.89246137    -0.04880
N719        N  0.26811620  0.76698508  0.85082736    -0.63060
N720        N  0.23154679  0.75417304  0.89095779    -0.05580
N721        N  0.22130959  0.74628004  0.84770211    -0.62650
N722        N  0.26161641  0.81258184  0.95627343    -0.04480
N723        N  0.27161030  0.83967184  0.95206193    -0.63340
Mn724      Mn  0.20965453  0.75452068  0.95382041     1.10660
C725        C  0.24857149  0.84389651  0.94900238     0.99640
C726        C  0.24449136  0.75421287  0.82348033     0.99720
N727        N  0.30937427  0.74833727  0.98859022    -0.05590
N728        N  0.32566460  0.73655603  0.98033671    -0.60960
N729        N  0.31124098  0.80932825  0.01686448    -0.04910
N730        N  0.33030575  0.83544057  0.01927414    -0.57690
N731        N  0.31413879  0.79588512  0.05334179    -0.06220
N732        N  0.33573494  0.81296075  0.08108458    -0.60530
N733        N  0.30755364  0.76253608  0.95251993    -0.05200
N734        N  0.32259307  0.76077285  0.91910906    -0.57710
Mn735      Mn  0.28989732  0.74934048  0.05361304     1.20190
Mn736      Mn  0.28506070  0.78797729  0.95438598     1.10090
Cl737      Cl  0.24972853  0.75186246  0.00374107    -0.85680
C738        C  0.33331751  0.74411509  0.93666204     0.96650
C739        C  0.34524128  0.83770046  0.05959442     0.96450
N740        N  0.18681846  0.70649499  0.44944989    -0.05840
N741        N  0.16580665  0.68933282  0.42084786    -0.57960
N742        N  0.18774191  0.74042480  0.54667286    -0.05520
N743        N  0.16941713  0.74077210  0.57537836    -0.60090
N744        N  0.18717695  0.75389641  0.50881355    -0.05120
N745        N  0.16854439  0.76365164  0.51113131    -0.57930
N746        N  0.18836198  0.69351306  0.48743921    -0.04790
N747        N  0.16883145  0.66754854  0.48518565    -0.60440
C748        C  0.15513184  0.66494572  0.44335686     0.96340
C749        C  0.15783997  0.75563671  0.55302923     0.96120
N750        N  0.26406763  0.75202181  0.61775304    -0.06020
N751        N  0.27278376  0.76030884  0.66142242    -0.58540
N752        N  0.23762677  0.69279683  0.55460248    -0.04140
N753        N  0.22846677  0.66566508  0.55712600    -0.59790
N754        N  0.26521007  0.70545688  0.55781704    -0.06050
N755        N  0.27523323  0.68710144  0.56246449    -0.58800
N756        N  0.23649039  0.73927706  0.61379103    -0.03790
N757        N  0.22602243  0.73880442  0.65416804    -0.59880
Mn758      Mn  0.21246821  0.71624912  0.55110033     1.18440
C759        C  0.24874891  0.75217084  0.68327592     0.98420
C760        C  0.25210675  0.66243095  0.56182579     0.99080
N761        N  0.23451890  0.79886941  0.44959725    -0.06070
N762        N  0.22459367  0.81728039  0.44458275    -0.62380
N763        N  0.26309627  0.76489568  0.39351316    -0.04880
N764        N  0.27352040  0.76528195  0.35312610    -0.63060
N765        N  0.23552874  0.75228951  0.38958850    -0.05580
N766        N  0.22675249  0.74397408  0.34595378    -0.62650
N767        N  0.26209645  0.81142860  0.45264899    -0.04480
N768        N  0.27136972  0.83854263  0.44969792    -0.63340
Mn769      Mn  0.21067828  0.75290873  0.44835448     1.10660
C770        C  0.24779908  0.84187340  0.44490348     0.99640
C771        C  0.25075490  0.75197891  0.32406368     0.99720
N772        N  0.31247975  0.75039305  0.49858044    -0.05590
N773        N  0.33117215  0.74071438  0.49628358    -0.60960
N774        N  0.31128205  0.81076678  0.51943354    -0.04910
N775        N  0.33099513  0.83662615  0.52083272    -0.57690
N776        N  0.31308584  0.79799213  0.55754076    -0.06220
N777        N  0.33457914  0.81524449  0.58530871    -0.60530
N778        N  0.31179705  0.76374554  0.46063381    -0.05200
N779        N  0.33009597  0.76340490  0.43189086    -0.57710
Mn780      Mn  0.28904038  0.75146557  0.55903025     1.20190
Mn781      Mn  0.28711310  0.78790783  0.45612961     1.10090
Cl782      Cl  0.24982495  0.75213773  0.50368707    -0.85680
C783        C  0.34177711  0.74866074  0.45429968     0.96650
C784        C  0.34518130  0.83945546  0.56218846     0.96450
C785        C  0.24707916  0.75329091  0.73259300    -0.12990
C786        C  0.24469882  0.75293810  0.77388983    -0.14550
C787        C  0.25468968  0.75101088  0.23344241    -0.12990
C788        C  0.25236625  0.75076519  0.27474835    -0.14550
C789        C  0.24756170  0.86838336  0.43813905    -0.12990
C790        C  0.24800235  0.89086604  0.43258411    -0.14550
C791        C  0.25251772  0.63589873  0.56761915    -0.12990
C792        C  0.25232533  0.61343808  0.57219726    -0.14550
C793        C  0.24590482  0.99827746  0.73119176    -0.12990
C794        C  0.24661724  0.50635866  0.77025698    -0.14550
C795        C  0.25439685  0.99755208  0.23227540    -0.12990
C796        C  0.25506152  0.50575050  0.27125736    -0.14550
C797        C  0.24936399  0.87071841  0.94036004    -0.12990
C798        C  0.25072126  0.89343087  0.93292794    -0.14550
C799        C  0.24983822  0.61051204  0.07228835    -0.12990
C800        C  0.25082311  0.63316994  0.06574385    -0.14550
C801        C  0.39220013  0.63151147  0.51777222    -0.12990
C802        C  0.37235376  0.61144779  0.50188587    -0.14550
C803        C  0.10882427  0.87210653  0.48722291    -0.12990
C804        C  0.12903222  0.89221973  0.50198037    -0.14550
C805        C  0.36553135  0.74529514  0.43860990    -0.12990
C806        C  0.38659762  0.74379571  0.42835320    -0.14550
C807        C  0.13412227  0.75912904  0.56867327    -0.12990
C808        C  0.11309162  0.76078620  0.57874399    -0.14550
C809        C  0.50096865  0.76261928  0.77642836    -0.12990
C810        C  0.49503112  0.76119895  0.73525117    -0.14550
C811        C  0.00415177  0.74342809  0.27111304    -0.12990
C812        C  0.49812054  0.74186764  0.22994958    -0.14550
C813        C  0.35922667  0.62082538  0.98603192    -0.12990
C814        C  0.38038147  0.63921807  0.00274893    -0.14550
C815        C  0.14016933  0.88382001  0.01652518    -0.12990
C816        C  0.11871797  0.86542075  0.00074594    -0.14550
C817        C  0.37767362  0.74019704  0.91303971    -0.12990
C818        C  0.35564612  0.74071590  0.91698009    -0.14550
C819        C  0.12123531  0.76310464  0.09347358    -0.12990
C820        C  0.14323839  0.76246021  0.08985695    -0.14550
C821        C  0.39371992  0.88484357  0.57258145    -0.12990
C822        C  0.37185678  0.86361426  0.57364257    -0.14550
C823        C  0.12883349  0.64069485  0.43038806    -0.12990
C824        C  0.10701644  0.61934050  0.42975803    -0.14550
C825        C  0.39199167  0.50037318  0.52288547    -0.12990
C826        C  0.37167897  0.99835757  0.54193332    -0.14550
C827        C  0.12954046  0.50648458  0.45916595    -0.12990
C828        C  0.10901425  0.50422426  0.47768013    -0.14550
C829        C  0.97270364  0.87414529  0.49168649    -0.12990
C830        C  0.46876766  0.85394169  0.51342106    -0.14550
C831        C  0.02684380  0.63001411  0.51239973    -0.12990
C832        C  0.03076641  0.65068804  0.49218121    -0.14550
C833        C  0.00338897  0.00223099  0.72911122    -0.12990
C834        C  0.99984712  0.49956952  0.77037037    -0.14550
C835        C  0.50019069  0.50344415  0.22942594    -0.12990
C836        C  0.99662978  0.50086247  0.27071164    -0.14550
C837        C  0.37143455  0.86222029  0.07133743    -0.12990
C838        C  0.39283116  0.88384078  0.07024782    -0.14550
C839        C  0.10765246  0.61984486  0.93213122    -0.12990
C840        C  0.12900535  0.64159186  0.93274267    -0.14550
C841        C  0.39248548  0.99973898  0.01574924    -0.12990
C842        C  0.37233400  0.99873494  0.03375563    -0.14550
C843        C  0.12873072  0.50534055  0.96782614    -0.12990
C844        C  0.10832673  0.50404064  0.98529043    -0.14550
C845        C  0.98118874  0.85107653  0.99127928    -0.12990
C846        C  0.98398257  0.87189293  0.97161339    -0.14550
C847        C  0.51528942  0.63096489  0.03008299    -0.12990
C848        C  0.51803911  0.65209495  0.01161104    -0.14550
N849        N  0.93871667  0.48568306  0.95348205    -0.05840
N850        N  0.91485216  0.47648548  0.97382660    -0.57960
N851        N  0.49500394  0.01202924  0.88767628    -0.05600
N852        N  0.50355858  0.02155604  0.84643150    -0.60090
N853        N  0.98283871  0.48471366  0.88693312    -0.05120
N854        N  0.98288874  0.47524268  0.84447640    -0.57930
N855        N  0.95085358  0.01307885  0.95348895    -0.04790
N856        N  0.93538563  0.02272520  0.97395570    -0.60440
C857        C  0.91308006  0.49964314  0.98613304     0.96340
C858        C  0.49609986  0.99856821  0.81987367     0.96120
N859        N  0.55756659  0.06340963  0.98773160    -0.06020
N860        N  0.58344137  0.08307718  0.98633581    -0.58540
N861        N  0.99737959  0.06270024  0.00726610    -0.04140
N862        N  0.99262530  0.08433813  0.00076642    -0.59790
N863        N  0.51387494  0.06625521  0.04495653    -0.06050
N864        N  0.52156801  0.09140825  0.06316677    -0.58800
N865        N  0.54278779  0.06239039  0.94905142    -0.03790
N866        N  0.55853703  0.08191642  0.92080705    -0.59880
Mn867      Mn  0.49623298  0.03736022  0.94791506     1.18440
C868        C  0.58403692  0.09425136  0.94434977     0.98420
C869        C  0.00746613  0.10201353  0.03569726     0.99080
N870        N  0.98617872  0.43676648  0.95502227    -0.06070
N871        N  0.97821274  0.41142719  0.93739613    -0.62380
N872        N  0.95762591  0.44082216  0.05107586    -0.04880
N873        N  0.94205666  0.42157342  0.07984967    -0.63060
N874        N  0.94263014  0.43963013  0.01257621    -0.05580
N875        N  0.91674924  0.42001361  0.01458650    -0.62650
N876        N  0.50295518  0.44058379  0.99237855    -0.04480
N877        N  0.50770468  0.41896469  0.99912722    -0.63340
Mn878      Mn  0.96233366  0.46154561  0.94989482     1.10660
C879        C  0.49250296  0.40098622  0.96479513     0.99640
C880        C  0.91642769  0.40912918  0.05681978     0.99720
N881        N  0.51723159  0.01835442  0.11295710    -0.05590
N882        N  0.51708315  0.02779676  0.15537784    -0.60960
N883        N  0.54937998  0.49023562  0.04634638    -0.04910
N884        N  0.56505864  0.48076930  0.02608723    -0.57690
N885        N  0.56150809  0.01756924  0.04672381    -0.06220
N886        N  0.58550490  0.02694359  0.02678054    -0.60530
N887        N  0.00522563  0.49104375  0.11219645    -0.05200
N888        N  0.99664925  0.48147421  0.15341034    -0.57710
Mn889      Mn  0.53774226  0.04152004  0.05015858     1.20190
Mn890      Mn  0.00410320  0.46584429  0.05186732     1.10090
Cl891      Cl  0.50009823  0.00156326  0.99991889    -0.85680
C892        C  0.00395801  0.50444338  0.17995267     0.96650
C893        C  0.58742894  0.00388605  0.01438323     0.96450
N894        N  0.49254657  0.01295874  0.38848155    -0.05840
N895        N  0.50087576  0.02267196  0.34722481    -0.57960
N896        N  0.93731585  0.48655181  0.45731031    -0.05520
N897        N  0.91375419  0.47732009  0.47859881    -0.60090
N898        N  0.94971621  0.01382263  0.45798588    -0.05120
N899        N  0.93467048  0.02346139  0.47987887    -0.57930
N900        N  0.98015551  0.48567489  0.38737382    -0.04790
N901        N  0.97979844  0.47631816  0.34466217    -0.60440
C902        C  0.49297157  0.99974645  0.32024813     0.96340
C903        C  0.91232694  0.00047170  0.49220514     0.96120
N904        N  0.95880601  0.44123515  0.55108179    -0.06020
N905        N  0.94371799  0.42171282  0.57996376    -0.58540
N906        N  0.98411323  0.43789734  0.45387652    -0.04140
N907        N  0.97143655  0.41095168  0.44413924    -0.59790
N908        N  0.50368124  0.44288806  0.48750905    -0.06050
N909        N  0.50619209  0.42040327  0.49728798    -0.58800
N910        N  0.94285794  0.44084585  0.51431767    -0.03790
N911        N  0.91695489  0.42154222  0.51752255    -0.59880
Mn912      Mn  0.96089884  0.46273593  0.45119660     1.18440
C913        C  0.91748919  0.40996791  0.55876763     0.98420
C914        C  0.48560455  0.40056307  0.47152247     0.99080
N915        N  0.49695915  0.06100094  0.51189829    -0.06070
N916        N  0.99433450  0.08349384  0.50278595    -0.62380
N917        N  0.55753956  0.06280333  0.48605129    -0.04880
N918        N  0.58345055  0.08215677  0.48346913    -0.63060
N919        N  0.54183787  0.06249899  0.44898668    -0.05580
N920        N  0.55713255  0.08224728  0.42059009    -0.62650
N921        N  0.51602150  0.06561622  0.54623939    -0.04480
N922        N  0.52815864  0.09236065  0.55757737    -0.63340
Mn923      Mn  0.49500209  0.03744220  0.45044120     1.10660
C924        C  0.01417768  0.10296334  0.53023215     0.99640
C925        C  0.58322001  0.09393241  0.44237658     0.99720
N926        N  0.55084328  0.49008594  0.54175021    -0.05590
N927        N  0.56605479  0.48066086  0.51983696    -0.60960
N928        N  0.52010696  0.01786366  0.61260644    -0.04910
N929        N  0.52031892  0.02707834  0.65536338    -0.57690
N930        N  0.50790180  0.49059241  0.61132173    -0.06220
N931        N  0.99952421  0.48073172  0.65247637    -0.60530
N932        N  0.56314989  0.01734467  0.54288074    -0.05200
N933        N  0.58682800  0.02681293  0.52191846    -0.57710
Mn934      Mn  0.50558105  0.46633037  0.54918817     1.20190
Mn935      Mn  0.53937419  0.04091905  0.54895463     1.10090
Cl936      Cl  0.50020618  0.00186100  0.49993516    -0.85680
C937        C  0.58839891  0.00380206  0.50800982     0.96650
C938        C  0.00722337  0.50356346  0.67960072     0.96450
N939        N  0.56074272  0.27057655  0.06464811    -0.05840
N940        N  0.58009534  0.27279906  0.09745122    -0.57960
N941        N  0.56034714  0.30427809  0.97064266    -0.05520
N942        N  0.58506803  0.32298262  0.95842492    -0.60090
N943        N  0.55316379  0.31409675  0.00663028    -0.05120
N944        N  0.57161297  0.33950126  0.01761964    -0.57930
N945        N  0.56421369  0.25938356  0.02661255    -0.04790
N946        N  0.58531482  0.25333127  0.03262774    -0.60440
C947        C  0.59478531  0.26136565  0.07682668     0.96340
C948        C  0.59126631  0.34489597  0.98766255     0.96120
N949        N  0.99161818  0.24146662  0.88994030    -0.06020
N950        N  0.98101117  0.24179806  0.84788472    -0.58540
N951        N  0.52535729  0.21323597  0.95864173    -0.04140
N952        N  0.53752017  0.19900223  0.97884974    -0.59790
N953        N  0.99821253  0.19756752  0.95261924    -0.06050
N954        N  0.99157872  0.17251937  0.96819817    -0.58800
N955        N  0.51876717  0.25744750  0.89361359    -0.03790
N956        N  0.52725959  0.26896490  0.85319196    -0.59880
Mn957      Mn  0.54263908  0.25871999  0.96036436     1.18440
C958        C  0.50323537  0.25910319  0.82547936     0.98420
C959        C  0.01621053  0.17361787  0.98402167     0.99080
N960        N  0.50115383  0.30652268  0.05316370    -0.06070
N961        N  0.50782512  0.33139015  0.03669125    -0.62380
N962        N  0.98048629  0.24666072  0.11246024    -0.04880
N963        N  0.97193068  0.23530619  0.15297016    -0.63060
N964        N  0.50764069  0.26265897  0.11625976    -0.05580
N965        N  0.51818627  0.26245792  0.15842129    -0.62650
N966        N  0.97398750  0.29078759  0.04702520    -0.04480
N967        N  0.96188901  0.30483475  0.02595007    -0.63340
Mn968      Mn  0.53059348  0.28857868  0.06144522     1.10660
C969        C  0.98320734  0.33013029  0.02029694     0.99640
C970        C  0.99591675  0.24524461  0.18079359     0.99720
N971        N  0.94634508  0.18991657  0.99960345    -0.05590
N972        N  0.92782793  0.16463209  0.98807369    -0.60960
N973        N  0.93503588  0.24455836  0.97945131    -0.04910
N974        N  0.91379144  0.25039358  0.97351733    -0.57690
N975        N  0.93848264  0.23329597  0.94149423    -0.06220
N976        N  0.91897335  0.23080412  0.90881009    -0.60530
N977        N  0.93886269  0.19971832  0.03526572    -0.05200
N978        N  0.91381413  0.18116700  0.04647442    -0.57710
Mn979      Mn  0.96875221  0.21546314  0.94472050     1.20190
Mn980      Mn  0.95664522  0.24529989  0.04559838     1.10090
Cl981      Cl  0.99965813  0.25199724  0.00305883    -0.85680
C982        C  0.90775449  0.15933894  0.01710930     0.96650
C983        C  0.90421421  0.24215705  0.92942775     0.96450
N984        N  0.00253529  0.19575564  0.47111509    -0.05840
N985        N  0.01149457  0.17918280  0.45175214    -0.57960
N986        N  0.95365479  0.19181561  0.54034901    -0.05520
N987        N  0.93377379  0.16964832  0.55842253    -0.60090
N988        N  0.94686762  0.19254649  0.49597577    -0.05120
N989        N  0.92250325  0.17238519  0.48341176    -0.57930
N990        N  0.01063909  0.19934622  0.51546910    -0.04790
N991        N  0.52605545  0.18694159  0.52673214    -0.60440
C992        C  0.52680877  0.17469399  0.48721244     0.96340
C993        C  0.91448339  0.15845143  0.52206354     0.96120
N994        N  0.49750893  0.26865563  0.61651541    -0.06020
N995        N  0.49916478  0.27983992  0.65788556    -0.58540
N996        N  0.54228399  0.24471144  0.58585688    -0.04140
N997        N  0.56225206  0.23658309  0.58768424    -0.59790
N998        N  0.55307676  0.27177374  0.58318196    -0.06050
N999        N  0.58072834  0.28252344  0.58287498    -0.58800
N1000       N  0.98719234  0.24152809  0.61886613    -0.03790
N1001       N  0.98199734  0.23400494  0.66227422    -0.59880
Mn1002     Mn  0.99762965  0.21872022  0.56630232     1.18440
C1003       C  0.98902942  0.25805620  0.68590160     0.98420
C1004       C  0.58619275  0.26031587  0.58658060     0.99080
N1005       N  0.94663522  0.23298361  0.42347964    -0.06070
N1006       N  0.91899454  0.22218484  0.42391837    -0.62380
N1007       N  0.51244011  0.26318668  0.38759893    -0.04880
N1008       N  0.51743225  0.27065830  0.34411587    -0.63060
N1009       N  0.00210410  0.23607076  0.38997640    -0.05580
N1010       N  0.00023173  0.22483934  0.34856088    -0.62650
N1011       N  0.95739335  0.26003808  0.42079263    -0.04480
N1012       N  0.93739263  0.26812253  0.41910071    -0.63340
Mn1013     Mn  0.97460476  0.21382698  0.44433203     1.10660
C1014       C  0.91348492  0.24435576  0.42028484     0.99640
C1015       C  0.51026876  0.24657806  0.32049060     0.99720
N1016       N  0.55284383  0.31233213  0.51068154    -0.05590
N1017       N  0.57745763  0.33220369  0.52293614    -0.60960
N1018       N  0.98906180  0.30534755  0.49108915    -0.04910
N1019       N  0.97352198  0.31758972  0.47967922    -0.57690
N1020       N  0.49717429  0.30908329  0.53542680    -0.06220
N1021       N  0.48814588  0.32567350  0.55457214    -0.60530
N1022       N  0.54613715  0.31278960  0.46619379    -0.05200
N1023       N  0.56639714  0.33441342  0.44760823    -0.57710
Mn1024     Mn  0.52510543  0.29101048  0.56232150     1.20190
Mn1025     Mn  0.00208730  0.28599024  0.44027238     1.10090
Cl1026     Cl  0.99986207  0.25238857  0.50331003    -0.85680
C1027       C  0.58576316  0.34561081  0.48387587     0.96650
C1028       C  0.97274230  0.32996470  0.51902045     0.96450
N1029       N  0.76348280  0.05280678  0.07784499    -0.05840
N1030       N  0.77293869  0.08002154  0.07957372    -0.57960
N1031       N  0.73830142  0.48821122  0.11459055    -0.05520
N1032       N  0.72963727  0.48184268  0.15684454    -0.60090
N1033       N  0.76570471  0.00053910  0.11621675    -0.05120
N1034       N  0.77600037  0.00267338  0.15945266    -0.57930
N1035       N  0.73601637  0.04043970  0.07490771    -0.04790
N1036       N  0.72624202  0.05909190  0.07445442    -0.60440
C1037       C  0.74956818  0.08367853  0.07807973     0.96340
C1038       C  0.75341132  0.49059094  0.18424281     0.96120
N1039       N  0.69353411  0.44493595  0.99103996    -0.06020
N1040       N  0.67754410  0.41881732  0.98066938    -0.58540
N1041       N  0.69017958  0.00413146  0.00184560    -0.04140
N1042       N  0.67064939  0.01162550  0.00955421    -0.59790
N1043       N  0.68841265  0.49585650  0.95841933    -0.06050
N1044       N  0.66642279  0.49667461  0.93610826    -0.58800
N1045       N  0.69178042  0.45108903  0.03439699    -0.03790
N1046       N  0.67317351  0.42873332  0.05404462    -0.59880
Mn1047     Mn  0.71350151  0.99552713  0.05748130     1.18440
C1048       C  0.66526305  0.40880765  0.01988094     0.98420
C1049       C  0.65618415  0.00730896  0.96856076     0.99080
N1050       N  0.81260560  0.00823258  0.04412921    -0.06070
N1051       N  0.83472148  0.00750437  0.06618271    -0.62380
N1052       N  0.80889342  0.05295946  0.96827540    -0.04880
N1053       N  0.82699809  0.07555501  0.94844667    -0.63060
N1054       N  0.80711588  0.05900917  0.01167578    -0.05580
N1055       N  0.82253941  0.08523319  0.02191709    -0.62650
N1056       N  0.81064322  0.99993197  0.00063755    -0.04480
N1057       N  0.83029471  0.49257157  0.99258481    -0.63340
Mn1058     Mn  0.78759856  0.02988308  0.06345603     1.10660
C1059       C  0.84492017  0.49692678  0.03339938     0.99640
C1060       C  0.83452660  0.09545547  0.98259683     0.99720
N1061       N  0.73513456  0.50332341  0.88634201    -0.05590
N1062       N  0.72485119  0.50110870  0.84307762    -0.60960
N1063       N  0.76480675  0.46350543  0.92805189    -0.04910
N1064       N  0.77451030  0.44479052  0.92925631    -0.57690
N1065       N  0.73733560  0.45117200  0.92511238    -0.06220
N1066       N  0.72781648  0.42395857  0.92407547    -0.60530
N1067       N  0.76259376  0.01569699  0.88800960    -0.05200
N1068       N  0.77129615  0.02203413  0.84577000    -0.57710
Mn1069     Mn  0.71326191  0.47408613  0.93925642     1.20190
Mn1070     Mn  0.78722609  0.00844594  0.94518136     1.10090
Cl1071     Cl  0.75037317  0.00197252  0.00134816    -0.85680
C1072       C  0.74754076  0.01323473  0.81831557     0.96650
C1073       C  0.75113129  0.42022730  0.92601559     0.96450
N1074       N  0.76379873  0.05422353  0.57545601    -0.05840
N1075       N  0.77423268  0.08156154  0.57845203    -0.57960
N1076       N  0.73364618  0.48944804  0.61252183    -0.05520
N1077       N  0.72337305  0.48371682  0.65384061    -0.60090
N1078       N  0.76115893  0.00046240  0.61684511    -0.05120
N1079       N  0.76981689  0.00222681  0.66097168    -0.57930
N1080       N  0.73638984  0.04290881  0.57063853    -0.04790
N1081       N  0.72756734  0.06223764  0.57029495    -0.60440
C1082       C  0.75137129  0.08621352  0.57577034     0.96340
C1083       C  0.74610896  0.49133868  0.68348302     0.96120
N1084       N  0.69125041  0.44731550  0.48691267    -0.06020
N1085       N  0.67200900  0.42275480  0.47372380    -0.58540
N1086       N  0.69237421  0.50898990  0.49402549    -0.04140
N1087       N  0.67258882  0.01640945  0.50005007    -0.59790
N1088       N  0.69061639  0.49934114  0.45145727    -0.06050
N1089       N  0.66819021  0.49891446  0.42845074    -0.58800
N1090       N  0.68776654  0.45434533  0.52879761    -0.03790
N1091       N  0.66470558  0.43435460  0.54423685    -0.59880
Mn1092     Mn  0.71223010  0.49853094  0.55242559     1.18440
C1093       C  0.65583694  0.41479751  0.50936347     0.98420
C1094       C  0.65777735  0.01040621  0.45926217     0.99080
N1095       N  0.81046278  0.00526333  0.55075344    -0.06070
N1096       N  0.83314141  0.00597641  0.57335929    -0.62380
N1097       N  0.81315755  0.05000268  0.47360862    -0.04880
N1098       N  0.83657523  0.06974516  0.45871669    -0.63060
N1099       N  0.80943521  0.05713764  0.51526781    -0.05580
N1100       N  0.82882240  0.08155609  0.52872875    -0.62650
N1101       N  0.80847082  0.49537253  0.50829421    -0.04480
N1102       N  0.82828045  0.48805158  0.50200364    -0.63340
Mn1103     Mn  0.78633437  0.02898102  0.56546625     1.10660
C1104       C  0.84342236  0.49438680  0.54245733     0.99640
C1105       C  0.84538020  0.08928708  0.49360352     0.99720
N1106       N  0.73978962  0.50396490  0.38547463    -0.05590
N1107       N  0.73117679  0.50210699  0.34131066    -0.60960
N1108       N  0.76434241  0.46143277  0.43198016    -0.04910
N1109       N  0.77303882  0.44201055  0.43303896    -0.57690
N1110       N  0.73693979  0.45020648  0.42706002    -0.06220
N1111       N  0.72638688  0.42285721  0.42470043    -0.60530
N1112       N  0.76727498  0.01492115  0.38986063    -0.05200
N1113       N  0.77757227  0.02051773  0.34854790    -0.57710
Mn1114     Mn  0.71452608  0.47550672  0.43682548     1.20190
Mn1115     Mn  0.78860062  0.00581684  0.45000936     1.10090
Cl1116     Cl  0.75043109  0.50221248  0.50119057    -0.85680
C1117       C  0.75485817  0.01286781  0.31885279     0.96650
C1118       C  0.74916092  0.41809014  0.42785473     0.96450
N1119       N  0.68555986  0.20804267  0.95369072    -0.05840
N1120       N  0.66439869  0.19108321  0.92513978    -0.57960
N1121       N  0.69173380  0.24098165  0.05478651    -0.05520
N1122       N  0.67645008  0.24250866  0.08800471    -0.60090
N1123       N  0.69005536  0.25533220  0.01883068    -0.05120
N1124       N  0.67361589  0.26696089  0.02697017    -0.57930
N1125       N  0.68823628  0.19438370  0.99003075    -0.04790
N1126       N  0.66934215  0.16819497  0.98676655    -0.60440
C1127       C  0.65483193  0.16617863  0.94600930     0.96340
C1128       C  0.66571947  0.25916915  0.07045444     0.96120
N1129       N  0.76788533  0.24966127  0.11640730    -0.06020
N1130       N  0.77808992  0.25765589  0.15964950    -0.58540
N1131       N  0.73799615  0.19112061  0.05109381    -0.04140
N1132       N  0.72817182  0.16401231  0.05496886    -0.59790
N1133       N  0.76552772  0.20313765  0.05205260    -0.06050
N1134       N  0.77489417  0.18423995  0.05650200    -0.58800
N1135       N  0.74034533  0.23723532  0.11490337    -0.03790
N1136       N  0.73128257  0.23667870  0.15652470    -0.59880
Mn1137     Mn  0.71434166  0.21560229  0.05289579     1.18440
C1138       C  0.75489194  0.24961732  0.18385959     0.98420
C1139       C  0.75133469  0.15997073  0.05794645     0.99080
N1140       N  0.73409250  0.30071728  0.95546617    -0.06070
N1141       N  0.72489037  0.31972857  0.95070098    -0.62380
N1142       N  0.75907090  0.26641648  0.89246146    -0.04880
N1143       N  0.76811447  0.26698490  0.85082725    -0.63060
N1144       N  0.73154475  0.25416978  0.89095761    -0.05580
N1145       N  0.72130783  0.24627821  0.84770141    -0.62650
N1146       N  0.76161252  0.31257655  0.95627628    -0.04480
N1147       N  0.77160483  0.33966621  0.95206409    -0.63340
Mn1148     Mn  0.70965283  0.25451514  0.95382125     1.10660
C1149       C  0.74856470  0.34388848  0.94900458     0.99640
C1150       C  0.74448987  0.25421295  0.82347978     0.99720
N1151       N  0.80937058  0.24833383  0.98858792    -0.05590
N1152       N  0.82565223  0.23654422  0.98032567    -0.60960
N1153       N  0.81123888  0.30932579  0.01686365    -0.04910
N1154       N  0.83030238  0.33543860  0.01927242    -0.57690
N1155       N  0.81413821  0.29588345  0.05334091    -0.06220
N1156       N  0.83573425  0.31296024  0.08108284    -0.60530
N1157       N  0.80754870  0.26253233  0.95251814    -0.05200
N1158       N  0.82257840  0.26076068  0.91909866    -0.57710
Mn1159     Mn  0.78989744  0.24933860  0.05361352     1.20190
Mn1160     Mn  0.78505804  0.28797435  0.95438618     1.10090
Cl1161     Cl  0.74972829  0.25185947  0.00374101    -0.85680
C1162       C  0.83329820  0.24409821  0.93664634     0.96650
C1163       C  0.84523886  0.33769974  0.05959200     0.96450
N1164       N  0.68681554  0.20649687  0.44945353    -0.05840
N1165       N  0.66580241  0.18933524  0.42085302    -0.57960
N1166       N  0.68774188  0.24042908  0.54667473    -0.05520
N1167       N  0.66941648  0.24077582  0.57537928    -0.60090
N1168       N  0.68717705  0.25390035  0.50881495    -0.05120
N1169       N  0.66854370  0.26365474  0.51113150    -0.57930
N1170       N  0.68835855  0.19351527  0.48744355    -0.04790
N1171       N  0.66882627  0.16755147  0.48519198    -0.60440
C1172       C  0.65512614  0.16494873  0.44336364     0.96340
C1173       C  0.65783890  0.25563972  0.55302931     0.96120
N1174       N  0.76406732  0.25202480  0.61775371    -0.06020
N1175       N  0.77278369  0.26031219  0.66142286    -0.58540
N1176       N  0.73762345  0.19279876  0.55460655    -0.04140
N1177       N  0.72846215  0.16566696  0.55713091    -0.59790
N1178       N  0.76520676  0.20545764  0.55782090    -0.06050
N1179       N  0.77522872  0.18710138  0.56246897    -0.58800
N1180       N  0.73649004  0.23928121  0.61379180    -0.03790
N1181       N  0.72602232  0.23880985  0.65416847    -0.59880
Mn1182     Mn  0.71246661  0.21625231  0.55110307     1.18440
C1183       C  0.74874895  0.25217578  0.68327607     0.98420
C1184       C  0.75210143  0.16243172  0.56183097     0.99080
N1185       N  0.73452133  0.29887059  0.44959690    -0.06070
N1186       N  0.72459777  0.31728276  0.44458153    -0.62380
N1187       N  0.76309501  0.26489306  0.39351401    -0.04880
N1188       N  0.77351851  0.26527838  0.35312666    -0.63060
N1189       N  0.73552741  0.25228846  0.38958985    -0.05580
N1190       N  0.72675059  0.24397322  0.34595516    -0.62650
N1191       N  0.76209892  0.31142822  0.45264776    -0.04480
N1192       N  0.77137390  0.33854231  0.44969531    -0.63340
Mn1193     Mn  0.71067795  0.25291036  0.44835595     1.10660
C1194       C  0.74780428  0.34187473  0.44490091     0.99640
C1195       C  0.75075264  0.25197646  0.32406451     0.99720
N1196       N  0.81247801  0.25039017  0.49858265    -0.05590
N1197       N  0.83117027  0.24071118  0.49628725    -0.60960
N1198       N  0.81128450  0.31076598  0.51943153    -0.04910
N1199       N  0.83099928  0.33662461  0.52082866    -0.57690
N1200       N  0.81308751  0.29799187  0.55753985    -0.06220
N1201       N  0.83458189  0.31524377  0.58530648    -0.60530
N1202       N  0.81179547  0.26374180  0.46063490    -0.05200
N1203       N  0.83009431  0.26340030  0.43189267    -0.57710
Mn1204     Mn  0.78903937  0.25146568  0.55903188     1.20190
Mn1205     Mn  0.78711349  0.28790584  0.45612920     1.10090
Cl1206     Cl  0.74982430  0.25213847  0.50368838    -0.85680
C1207       C  0.84177522  0.24865643  0.45430297     0.96650
C1208       C  0.84518568  0.33945403  0.56218430     0.96450
C1209       C  0.74707905  0.25329513  0.73259291    -0.12990
C1210       C  0.74469787  0.25294054  0.77388942    -0.14550
C1211       C  0.75468770  0.25100835  0.23344294    -0.12990
C1212       C  0.75236369  0.25076265  0.27474887    -0.14550
C1213       C  0.74756893  0.36838512  0.43813460    -0.12990
C1214       C  0.74801101  0.39086810  0.43257806    -0.14550
C1215       C  0.75251105  0.13589929  0.56762437    -0.12990
C1216       C  0.75231783  0.11343846  0.57220187    -0.14550
C1217       C  0.74591718  0.49827258  0.73117917    -0.12990
C1218       C  0.74660909  0.00635204  0.77025968    -0.14550
C1219       C  0.75439478  0.49754833  0.23226964    -0.12990
C1220       C  0.75504454  0.00574537  0.27126019    -0.14550
C1221       C  0.74935443  0.37070787  0.94035779    -0.12990
C1222       C  0.75070964  0.39341845  0.93292084    -0.14550
C1223       C  0.74981340  0.11050594  0.07229146    -0.12990
C1224       C  0.75081057  0.13316749  0.06574499    -0.14550
C1225       C  0.89219129  0.13151448  0.51775606    -0.12990
C1226       C  0.87234143  0.11145154  0.50187609    -0.14550
C1227       C  0.60883494  0.37210138  0.48722760    -0.12990
C1228       C  0.62904472  0.39221439  0.50198154    -0.14550
C1229       C  0.86552981  0.24529093  0.43861439    -0.12990
C1230       C  0.88659660  0.24379267  0.42835728    -0.14550
C1231       C  0.63411996  0.25913024  0.56867225    -0.12990
C1232       C  0.61308859  0.26078557  0.57874420    -0.14550
C1233       C  0.00094968  0.26259082  0.77645338    -0.12990
C1234       C  0.99501929  0.26116992  0.73527174    -0.14550
C1235       C  0.50412918  0.24341325  0.27113766    -0.12990
C1236       C  0.99811944  0.24189195  0.22992446    -0.14550
C1237       C  0.85918516  0.12082471  0.98601098    -0.12990
C1238       C  0.88033917  0.13921777  0.00272859    -0.14550
C1239       C  0.64018030  0.38381242  0.01648109    -0.12990
C1240       C  0.61873298  0.36540764  0.00070530    -0.14550
C1241       C  0.87764208  0.24016568  0.91300870    -0.12990
C1242       C  0.85561738  0.24068905  0.91695228    -0.14550
C1243       C  0.62120768  0.26303603  0.09347270    -0.12990
C1244       C  0.64322228  0.26241847  0.08985662    -0.14550
C1245       C  0.89372616  0.38484073  0.57257711    -0.12990
C1246       C  0.87186221  0.36361206  0.57363753    -0.14550
C1247       C  0.62882668  0.14069867  0.43039594    -0.12990
C1248       C  0.60700900  0.11934483  0.42976525    -0.14550
C1249       C  0.89197907  0.00036856  0.52290033    -0.12990
C1250       C  0.87168779  0.49835597  0.54192441    -0.14550
C1251       C  0.62953165  0.00648523  0.45915998    -0.12990
C1252       C  0.60900524  0.00422468  0.47767364    -0.14550
C1253       C  0.47269722  0.37413588  0.49169011    -0.12990
C1254       C  0.96876753  0.35393924  0.51344419    -0.14550
C1255       C  0.52684793  0.13001722  0.51240644    -0.12990
C1256       C  0.53077242  0.15069134  0.49218735    -0.14550
C1257       C  0.50343405  0.50226951  0.72910294    -0.12990
C1258       C  0.49984946  0.99956454  0.77037464    -0.14550
C1259       C  0.00017746  0.00348071  0.22944001    -0.12990
C1260       C  0.49662389  0.00086797  0.27071657    -0.14550
C1261       C  0.87143160  0.36222073  0.07133292    -0.12990
C1262       C  0.89282747  0.38384185  0.07024108    -0.14550
C1263       C  0.60765423  0.11983978  0.93213166    -0.12990
C1264       C  0.62900741  0.14158642  0.93274252    -0.14550
C1265       C  0.89248648  0.49974349  0.01575550    -0.12990
C1266       C  0.87233352  0.49873494  0.03376196    -0.14550
C1267       C  0.62871815  0.00534017  0.96779836    -0.12990
C1268       C  0.60831822  0.00404233  0.98527375    -0.14550
C1269       C  0.48146883  0.35121597  0.99127333    -0.12990
C1270       C  0.48431721  0.37203557  0.97156795    -0.14550
C1271       C  0.01533913  0.13099681  0.03012283    -0.12990
C1272       C  0.01807505  0.15212735  0.01166900    -0.14550
N1273       N  0.93861081  0.98575107  0.95344568    -0.05840
N1274       N  0.91474496  0.97658815  0.97376855    -0.57960
N1275       N  0.49495725  0.51203096  0.88766551    -0.05600
N1276       N  0.50351406  0.52156046  0.84642253    -0.60090
N1277       N  0.98268928  0.98468140  0.88691627    -0.05120
N1278       N  0.98273200  0.97520200  0.84446399    -0.57930
N1279       N  0.95091348  0.51300885  0.95350337    -0.04790
N1280       N  0.93541690  0.52262216  0.97396698    -0.60440
C1281       C  0.91301704  0.99976477  0.98609369     0.96340
C1282       C  0.49605919  0.49857398  0.81986196     0.96120
N1283       N  0.55754063  0.56339107  0.98769901    -0.06020
N1284       N  0.58341812  0.58304905  0.98628659    -0.58540
N1285       N  0.99737668  0.56268729  0.00727962    -0.04140
N1286       N  0.99261885  0.58432196  0.00074606    -0.59790
N1287       N  0.51386890  0.56624516  0.04496404    -0.06050
N1288       N  0.52156863  0.59139900  0.06317650    -0.58800
N1289       N  0.54275246  0.56238044  0.94903476    -0.03790
N1290       N  0.55849901  0.58190343  0.92078372    -0.59880
Mn1291     Mn  0.49619679  0.53735568  0.94792266     1.18440
C1292       C  0.58400580  0.59422637  0.94430664     0.98420
C1293       C  0.00744962  0.60200900  0.03567081     0.99080
N1294       N  0.98590451  0.93667425  0.95503678    -0.06070
N1295       N  0.97789356  0.91132274  0.93742802    -0.62380
N1296       N  0.95742897  0.94085640  0.05110144    -0.04880
N1297       N  0.94185340  0.92162632  0.07988996    -0.63060
N1298       N  0.94243007  0.93967515  0.01260696    -0.05580
N1299       N  0.91654024  0.92008291  0.01464473    -0.62650
N1300       N  0.50297639  0.94058124  0.99242560    -0.04480
N1301       N  0.50771372  0.91895606  0.99919629    -0.63340
Mn1302     Mn  0.96215102  0.96154237  0.94988993     1.10660
C1303       C  0.49251415  0.90097535  0.96486450     0.99640
C1304       C  0.91621711  0.90920440  0.05688649     0.99720
N1305       N  0.51723868  0.51834363  0.11294421    -0.05590
N1306       N  0.51709841  0.52778663  0.15536832    -0.60960
N1307       N  0.54938943  0.99025101  0.04638741    -0.04910
N1308       N  0.56505924  0.98078974  0.02608792    -0.57690
N1309       N  0.56150101  0.51755321  0.04667525    -0.06220
N1310       N  0.58550872  0.52692387  0.02676433    -0.60530
N1311       N  0.00511447  0.99102085  0.11218598    -0.05200
N1312       N  0.99655045  0.98147331  0.15341470    -0.57710
Mn1313     Mn  0.53773542  0.54150689  0.05013432     1.20190
Mn1314     Mn  0.00391073  0.96578358  0.05185673     1.10090
Cl1315     Cl  0.50007567  0.50155704  0.99990588    -0.85680
C1316       C  0.00392692  0.00445620  0.17995585     0.96650
C1317       C  0.58743768  0.50386302  0.01439819     0.96450
N1318       N  0.49255932  0.51295430  0.38847499    -0.05840
N1319       N  0.50089020  0.52266679  0.34721835    -0.57960
N1320       N  0.93731328  0.98655984  0.45732384    -0.05520
N1321       N  0.91374882  0.97732369  0.47860502    -0.60090
N1322       N  0.94971988  0.51381456  0.45796120    -0.05120
N1323       N  0.93467755  0.52345757  0.47985405    -0.57930
N1324       N  0.98016032  0.98569545  0.38738705    -0.04790
N1325       N  0.97980990  0.97634564  0.34467326    -0.60440
C1326       C  0.49298773  0.49974083  0.32024311     0.96340
C1327       C  0.91233505  0.50047061  0.49219186     0.96120
N1328       N  0.95880309  0.94123634  0.55108097    -0.06020
N1329       N  0.94371385  0.92171343  0.57996086    -0.58540
N1330       N  0.98411369  0.93790819  0.45387505    -0.04140
N1331       N  0.97143740  0.91096277  0.44413472    -0.59790
N1332       N  0.50367100  0.94289156  0.48750403    -0.06050
N1333       N  0.50618497  0.92040797  0.49727911    -0.58800
N1334       N  0.94285579  0.94084987  0.51431747    -0.03790
N1335       N  0.91695209  0.92154729  0.51752067    -0.59880
Mn1336     Mn  0.96089902  0.96274695  0.45120243     1.18440
C1337       C  0.91748521  0.90997077  0.55876418     0.98420
C1338       C  0.48559778  0.90056722  0.47151402     0.99080
N1339       N  0.49696786  0.56099655  0.51188999    -0.06070
N1340       N  0.99433953  0.58348984  0.50274365    -0.62380
N1341       N  0.55754935  0.56280016  0.48604866    -0.04880
N1342       N  0.58346024  0.58215369  0.48346552    -0.63060
N1343       N  0.54184788  0.56249414  0.44898260    -0.05580
N1344       N  0.55714235  0.58224100  0.42058404    -0.62650
N1345       N  0.51602883  0.56561250  0.54623357    -0.04480
N1346       N  0.52816121  0.59235608  0.55757732    -0.63340
Mn1347     Mn  0.49501272  0.53743791  0.45043415     1.10660
C1348       C  0.01417531  0.60295730  0.53020337     0.99640
C1349       C  0.58322953  0.59392723  0.44237078     0.99720
N1350       N  0.55083268  0.99008789  0.54174656    -0.05590
N1351       N  0.56604403  0.98066319  0.51983256    -0.60960
N1352       N  0.52011401  0.51786340  0.61260592    -0.04910
N1353       N  0.52031826  0.52707970  0.65535859    -0.57690
N1354       N  0.50789418  0.99059264  0.61131935    -0.06220
N1355       N  0.99950365  0.98071460  0.65247896    -0.60530
N1356       N  0.56316038  0.51734278  0.54288244    -0.05200
N1357       N  0.58683848  0.52681042  0.52191960    -0.57710
Mn1358     Mn  0.50557151  0.96633220  0.54918507     1.20190
Mn1359     Mn  0.53938338  0.54091710  0.54895309     1.10090
Cl1360     Cl  0.50021659  0.50185815  0.49993293    -0.85680
C1361       C  0.58840986  0.50379935  0.50801261     0.96650
C1362       C  0.00719226  0.00353992  0.67961509     0.96450
N1363       N  0.56070935  0.77053133  0.06464436    -0.05840
N1364       N  0.58006174  0.77275382  0.09744784    -0.57960
N1365       N  0.56031131  0.80424068  0.97065199    -0.05520
N1366       N  0.58503285  0.82294872  0.95844590    -0.60090
N1367       N  0.55312158  0.81405198  0.00664078    -0.05120
N1368       N  0.57156602  0.83945587  0.01764091    -0.57930
N1369       N  0.56418536  0.75934580  0.02660465    -0.04790
N1370       N  0.58529009  0.75329875  0.03261695    -0.60440
C1371       C  0.59475719  0.76132840  0.07681858     0.96340
C1372       C  0.59122364  0.84485627  0.98769148     0.96120
N1373       N  0.99161405  0.74147144  0.88994352    -0.06020
N1374       N  0.98100352  0.74179557  0.84788748    -0.58540
N1375       N  0.52533778  0.71320651  0.95861779    -0.04140
N1376       N  0.53750184  0.69897719  0.97883716    -0.59790
N1377       N  0.99824222  0.69759067  0.95260853    -0.06050
N1378       N  0.99161268  0.67253729  0.96815553    -0.58800
N1379       N  0.51874751  0.75742407  0.89360591    -0.03790
N1380       N  0.52724373  0.76895215  0.85319291    -0.59880
Mn1381     Mn  0.54261323  0.75868799  0.96035701     1.18440
C1382       C  0.50322223  0.75909499  0.82547434     0.98420
C1383       C  0.01624252  0.67363985  0.98399492     0.99080
N1384       N  0.50111788  0.80647239  0.05318257    -0.06070
N1385       N  0.50779419  0.83134604  0.03673482    -0.62380
N1386       N  0.98051331  0.74667052  0.11246740    -0.04880
N1387       N  0.97198241  0.73530763  0.15297975    -0.63060
N1388       N  0.50760367  0.76260197  0.11625368    -0.05580
N1389       N  0.51814755  0.76240403  0.15841736    -0.62650
N1390       N  0.97391720  0.79074088  0.04703204    -0.04480
N1391       N  0.96175811  0.80474121  0.02599385    -0.63340
Mn1392     Mn  0.53055609  0.78852787  0.06144912     1.10660
C1393       C  0.98303403  0.83005058  0.02026347     0.99640
C1394       C  0.99597432  0.74528321  0.18079187     0.99720
N1395       N  0.94638213  0.68990191  0.99962693    -0.05590
N1396       N  0.92785690  0.66462438  0.98807462    -0.60960
N1397       N  0.93500273  0.74449625  0.97949574    -0.04910
N1398       N  0.91375338  0.75032404  0.97357414    -0.57690
N1399       N  0.93846279  0.73325747  0.94152215    -0.06220
N1400       N  0.91895675  0.73077466  0.90883724    -0.60530
N1401       N  0.93890234  0.69969556  0.03530378    -0.05200
N1402       N  0.91384780  0.68114962  0.04649028    -0.57710
Mn1403     Mn  0.96876336  0.71545993  0.94472955     1.20190
Mn1404     Mn  0.95664124  0.74526673  0.04562484     1.10090
Cl1405     Cl  0.99966043  0.75201148  0.00305623    -0.85680
C1406       C  0.90777901  0.65933191  0.01710063     0.96650
C1407       C  0.90418502  0.74210734  0.92947540     0.96450
N1408       N  0.00253540  0.69575891  0.47111530    -0.05840
N1409       N  0.01149269  0.67918467  0.45175222    -0.57960
N1410       N  0.95365929  0.69182221  0.54035305    -0.05520
N1411       N  0.93378186  0.66965400  0.55842979    -0.60090
N1412       N  0.94686938  0.69255148  0.49598031    -0.05120
N1413       N  0.92250572  0.67238796  0.48342067    -0.57930
N1414       N  0.01064052  0.69935020  0.51546895    -0.04790
N1415       N  0.52605131  0.68693902  0.52673970    -0.60440
C1416       C  0.52680223  0.67468911  0.48722110     0.96340
C1417       C  0.91449001  0.65845472  0.52207421     0.96120
N1418       N  0.49751359  0.76866193  0.61651164    -0.06020
N1419       N  0.49916946  0.77984835  0.65788003    -0.58540
N1420       N  0.54228479  0.74471268  0.58585527    -0.04140
N1421       N  0.56225206  0.73658319  0.58768530    -0.59790
N1422       N  0.55307856  0.77177472  0.58317479    -0.06050
N1423       N  0.58073004  0.78252317  0.58286673    -0.58800
N1424       N  0.98719629  0.74153435  0.61886575    -0.03790
N1425       N  0.98199779  0.73401083  0.66227273    -0.59880
Mn1426     Mn  0.99763311  0.71872582  0.56630271     1.18440
C1427       C  0.98902811  0.75806199  0.68589910     0.98420
C1428       C  0.58619336  0.76031509  0.58657752     0.99080
N1429       N  0.94663530  0.73298535  0.42347752    -0.06070
N1430       N  0.91899465  0.72218682  0.42391598    -0.62380
N1431       N  0.51243035  0.76317601  0.38759123    -0.04880
N1432       N  0.51741357  0.77064097  0.34410302    -0.63060
N1433       N  0.00210544  0.73607333  0.38997218    -0.05580
N1434       N  0.00024933  0.72484636  0.34855869    -0.62650
N1435       N  0.95739379  0.76003982  0.42078972    -0.04480
N1436       N  0.93739325  0.76812447  0.41909695    -0.63340
Mn1437     Mn  0.97460483  0.71382940  0.44433067     1.10660
C1438       C  0.91348531  0.74435790  0.42028129     0.99640
C1439       C  0.51024624  0.74655727  0.32048573     0.99720
N1440       N  0.55284359  0.81232706  0.51066509    -0.05590
N1441       N  0.57745519  0.83220219  0.52291853    -0.60960
N1442       N  0.98906239  0.80535029  0.49108510    -0.04910
N1443       N  0.97352453  0.81759423  0.47967299    -0.57690
N1444       N  0.49717751  0.80908591  0.53541594    -0.06220
N1445       N  0.48815162  0.82567865  0.55455981    -0.60530
N1446       N  0.54613377  0.81278530  0.46617877    -0.05200
N1447       N  0.56638849  0.83441431  0.44759460    -0.57710
Mn1448     Mn  0.52510795  0.79101176  0.56231178     1.20190
Mn1449     Mn  0.00208801  0.78599219  0.44026976     1.10090
Cl1450     Cl  0.99986372  0.75239225  0.50330855    -0.85680
C1451       C  0.58575544  0.84561319  0.48386039     0.96650
C1452       C  0.97274778  0.82997294  0.51901183     0.96450
N1453       N  0.76357436  0.55283885  0.07785765    -0.05840
N1454       N  0.77301192  0.58005175  0.07958230    -0.57960
N1455       N  0.73816499  0.98818357  0.11459030    -0.05520
N1456       N  0.72949809  0.98182283  0.15684505    -0.60090
N1457       N  0.76584149  0.50059087  0.11621677    -0.05120
N1458       N  0.77613893  0.50273731  0.15945531    -0.57930
N1459       N  0.73610791  0.54045478  0.07493594    -0.04790
N1460       N  0.72631585  0.55909330  0.07448926    -0.60440
C1461       C  0.74963057  0.58368973  0.07810220     0.96340
C1462       C  0.75327174  0.99054773  0.18424103     0.96120
N1463       N  0.69341636  0.94491901  0.99102494    -0.06020
N1464       N  0.67744760  0.91879351  0.98067891    -0.58540
N1465       N  0.69025815  0.50412808  0.00190511    -0.04140
N1466       N  0.67071223  0.51159521  0.00964509    -0.59790
N1467       N  0.68833884  0.99585301  0.95836543    -0.06050
N1468       N  0.66636702  0.99669147  0.93602751    -0.58800
N1469       N  0.69166497  0.95107833  0.03437944    -0.03790
N1470       N  0.67308305  0.92871911  0.05405361    -0.59880
Mn1471     Mn  0.71361134  0.49553985  0.05750753     1.18440
C1472       C  0.66518468  0.90878680  0.01990538     0.98420
C1473       C  0.65623248  0.50727096  0.96866478     0.99080
N1474       N  0.81273569  0.50830672  0.04408204    -0.06070
N1475       N  0.83482669  0.50752928  0.06614412    -0.62380
N1476       N  0.80895757  0.55302188  0.96823253    -0.04880
N1477       N  0.82702170  0.57562687  0.94837432    -0.63060
N1478       N  0.80719083  0.55906946  0.01163853    -0.05580
N1479       N  0.82257963  0.58530234  0.02185410    -0.62650
N1480       N  0.81077584  0.50002477  0.00058115    -0.04480
N1481       N  0.83018354  0.99250864  0.99264940    -0.63340
Mn1482     Mn  0.78771197  0.52994001  0.06344168     1.10660
C1483       C  0.84482842  0.99690770  0.03345327     0.99640
C1484       C  0.83453573  0.59553074  0.98251258     0.99720
N1485       N  0.73506149  0.00328691  0.88633063    -0.05590
N1486       N  0.72479256  0.00108308  0.84305906    -0.60960
N1487       N  0.76468812  0.96344128  0.92806813    -0.04910
N1488       N  0.77438230  0.94471966  0.92926299    -0.57690
N1489       N  0.73721698  0.95111684  0.92511642    -0.06220
N1490       N  0.72768839  0.92390169  0.92406425    -0.60530
N1491       N  0.76266615  0.51574129  0.88799568    -0.05200
N1492       N  0.77135353  0.52207273  0.84574573    -0.57710
Mn1493     Mn  0.71316301  0.97405558  0.93923587     1.20190
Mn1494     Mn  0.78732515  0.50851273  0.94514871     1.10090
Cl1495     Cl  0.75047872  0.50201367  0.00134966    -0.85680
C1496       C  0.74758919  0.51326134  0.81831160     0.96650
C1497       C  0.75099885  0.92016120  0.92600650     0.96450
N1498       N  0.76381118  0.55422578  0.57544797    -0.05840
N1499       N  0.77424473  0.58156387  0.57844478    -0.57960
N1500       N  0.73363450  0.98944498  0.61252882    -0.05520
N1501       N  0.72335960  0.98370900  0.65384515    -0.60090
N1502       N  0.76117048  0.50046311  0.61683669    -0.05120
N1503       N  0.76982996  0.50222881  0.66096243    -0.57930
N1504       N  0.73640239  0.54291099  0.57062717    -0.04790
N1505       N  0.72757956  0.56223960  0.57028207    -0.60440
C1506       C  0.75138309  0.58621569  0.57576002     0.96340
C1507       C  0.74609441  0.99133179  0.68348912     0.96120
N1508       N  0.69123946  0.94730887  0.48694110    -0.06020
N1509       N  0.67199633  0.92274960  0.47375075    -0.58540
N1510       N  0.69235702  0.00898431  0.49404386    -0.04140
N1511       N  0.67260350  0.51641076  0.50003687    -0.59790
N1512       N  0.69059832  0.99933232  0.45147842    -0.06050
N1513       N  0.66817578  0.99890941  0.42846623    -0.58800
N1514       N  0.68775166  0.95434213  0.52882063    -0.03790
N1515       N  0.66468563  0.93435570  0.54425371    -0.59880
Mn1516     Mn  0.71221623  0.99852821  0.55244069     1.18440
C1517       C  0.65581849  0.91479716  0.50938297     0.98420
C1518       C  0.65778973  0.51040686  0.45925171     0.99080
N1519       N  0.81047596  0.50526377  0.55075731    -0.06070
N1520       N  0.83315687  0.50598097  0.57336151    -0.62380
N1521       N  0.81317727  0.55000236  0.47361469    -0.04880
N1522       N  0.83659652  0.56974352  0.45872586    -0.63060
N1523       N  0.80945113  0.55713874  0.51526980    -0.05580
N1524       N  0.82883789  0.58155691  0.52873214    -0.62650
N1525       N  0.80845982  0.99537660  0.50828738    -0.04480
N1526       N  0.82826895  0.98805501  0.50199591    -0.63340
Mn1527     Mn  0.78634707  0.52898219  0.56546271     1.10660
C1528       C  0.84340790  0.99438478  0.54245252     0.99640
C1529       C  0.84539883  0.58928596  0.49361103     0.99720
N1530       N  0.73975708  0.00395686  0.38549752    -0.05590
N1531       N  0.73112724  0.00209805  0.34134356    -0.60960
N1532       N  0.76432635  0.96142985  0.43198469    -0.04910
N1533       N  0.77302522  0.94200938  0.43303996    -0.57690
N1534       N  0.73692336  0.95020119  0.42707658    -0.06220
N1535       N  0.72637262  0.92285199  0.42472132    -0.60530
N1536       N  0.76730737  0.51493243  0.38986442    -0.05200
N1537       N  0.77762138  0.52053651  0.34856562    -0.57710
Mn1538     Mn  0.71450741  0.97549896  0.43684991     1.20190
Mn1539     Mn  0.78861927  0.50581840  0.45001430     1.10090
Cl1540     Cl  0.75041572  0.00220941  0.50120041    -0.85680
C1541       C  0.75491875  0.51288458  0.31884629     0.96650
C1542       C  0.74914826  0.91808738  0.42786595     0.96450
N1543       N  0.68553475  0.70799869  0.95366940    -0.05840
N1544       N  0.66437665  0.69104074  0.92511422    -0.57960
N1545       N  0.69169380  0.74093248  0.05476651    -0.05520
N1546       N  0.67641659  0.74246524  0.08799081    -0.60090
N1547       N  0.69001043  0.75527906  0.01880782    -0.05120
N1548       N  0.67357439  0.76691086  0.02695171    -0.57930
N1549       N  0.68821035  0.69433969  0.99001015    -0.04790
N1550       N  0.66931648  0.66815073  0.98674127    -0.60440
C1551       C  0.65480963  0.66613627  0.94597999     0.96340
C1552       C  0.66568463  0.75912471  0.07044069     0.96120
N1553       N  0.76784948  0.74963760  0.11639434    -0.06020
N1554       N  0.77805569  0.75763829  0.15963337    -0.58540
N1555       N  0.73798298  0.69109478  0.05108313    -0.04140
N1556       N  0.72817078  0.66398787  0.05496409    -0.59790
N1557       N  0.76551516  0.70312334  0.05204376    -0.06050
N1558       N  0.77489343  0.68423491  0.05649987    -0.58800
N1559       N  0.74030987  0.73720034  0.11489442    -0.03790
N1560       N  0.73124859  0.73664155  0.15651809    -0.59880
Mn1561     Mn  0.71431169  0.71556217  0.05288122     1.18440
C1562       C  0.75485913  0.74959108  0.18384830     0.98420
C1563       C  0.75134131  0.65995895  0.05794669     0.99080
N1564       N  0.73402443  0.80066648  0.95543372    -0.06070
N1565       N  0.72480537  0.81966457  0.95066705    -0.62380
N1566       N  0.75903451  0.76638473  0.89244386    -0.04880
N1567       N  0.76808309  0.76695937  0.85081300    -0.63060
N1568       N  0.73150813  0.75412976  0.89093512    -0.05580
N1569       N  0.72127608  0.74623834  0.84767705    -0.62650
N1570       N  0.76154417  0.81253947  0.95623879    -0.04480
N1571       N  0.77151999  0.83962769  0.95202157    -0.63340
Mn1572     Mn  0.70960943  0.75446703  0.95379734     1.10660
C1573       C  0.74846896  0.84383288  0.94896367     0.99640
C1574       C  0.74446160  0.75418202  0.82346116     0.99720
N1575       N  0.80935163  0.74833635  0.98858832    -0.05590
N1576       N  0.82564274  0.73655596  0.98033803    -0.60960
N1577       N  0.81116364  0.80930913  0.01684940    -0.04910
N1578       N  0.83018582  0.83543606  0.01928486    -0.57690
N1579       N  0.81407172  0.79587551  0.05333349    -0.06220
N1580       N  0.83563416  0.81297476  0.08110871    -0.60530
N1581       N  0.80752701  0.76253081  0.95251348    -0.05200
N1582       N  0.82256584  0.76076525  0.91910286    -0.57710
Mn1583     Mn  0.78986536  0.74932796  0.05360473     1.20190
Mn1584     Mn  0.78500925  0.78795220  0.95436614     1.10090
Cl1585     Cl  0.74968946  0.75182670  0.00372223    -0.85680
C1586       C  0.83329411  0.74411121  0.93666192     0.96650
C1587       C  0.84510687  0.83771628  0.05962744     0.96450
N1588       N  0.68681674  0.70649500  0.44944555    -0.05840
N1589       N  0.66580489  0.68933260  0.42084396    -0.57960
N1590       N  0.68773988  0.74042346  0.54666807    -0.05520
N1591       N  0.66941487  0.74076969  0.57537412    -0.60090
N1592       N  0.68717520  0.75389629  0.50881038    -0.05120
N1593       N  0.66854235  0.76365108  0.51112934    -0.57930
N1594       N  0.68836169  0.69351279  0.48743353    -0.04790
N1595       N  0.66883209  0.66754798  0.48518004    -0.60440
C1596       C  0.65513165  0.66494522  0.44335223     0.96340
C1597       C  0.65783760  0.75563474  0.55302673     0.96120
N1598       N  0.76406499  0.75202263  0.61774539    -0.06020
N1599       N  0.77277835  0.76030821  0.66141602    -0.58540
N1600       N  0.73762676  0.69279746  0.55459675    -0.04140
N1601       N  0.72846752  0.66566582  0.55712108    -0.59790
N1602       N  0.76521002  0.70545821  0.55781285    -0.06050
N1603       N  0.77523395  0.68710347  0.56246185    -0.58800
N1604       N  0.73648782  0.73927745  0.61377951    -0.03790
N1605       N  0.72601712  0.73880355  0.65415345    -0.59880
Mn1606     Mn  0.71246726  0.71624887  0.55109293     1.18440
C1607       C  0.74874153  0.75216930  0.68326436     0.98420
C1608       C  0.75210800  0.66243261  0.56182274     0.99080
N1609       N  0.73451768  0.79886952  0.44959445    -0.06070
N1610       N  0.72459286  0.81728096  0.44458330    -0.62380
N1611       N  0.76309215  0.76489441  0.39350450    -0.04880
N1612       N  0.77351273  0.76527833  0.35311443    -0.63060
N1613       N  0.73552448  0.75228850  0.38958514    -0.05580
N1614       N  0.72674461  0.74397043  0.34595289    -0.62650
N1615       N  0.76209526  0.81142827  0.45264362    -0.04480
N1616       N  0.77136894  0.83854241  0.44969449    -0.63340
Mn1617     Mn  0.71067627  0.75290884  0.44835142     1.10660
C1618       C  0.74779856  0.84187372  0.44490358     0.99640
C1619       C  0.75074452  0.75197370  0.32405701     0.99720
N1620       N  0.81247872  0.75039348  0.49857557    -0.05590
N1621       N  0.83117120  0.74071486  0.49628008    -0.60960
N1622       N  0.81128171  0.81076720  0.51942533    -0.04910
N1623       N  0.83099521  0.83662642  0.52082340    -0.57690
N1624       N  0.81308509  0.79799327  0.55753375    -0.06220
N1625       N  0.83457867  0.81524590  0.58530107    -0.60530
N1626       N  0.81179539  0.76374462  0.46062741    -0.05200
N1627       N  0.83009428  0.76340328  0.43188508    -0.57710
Mn1628     Mn  0.78903946  0.75146671  0.55902489     1.20190
Mn1629     Mn  0.78711156  0.78790731  0.45612169     1.10090
Cl1630     Cl  0.74982377  0.75213789  0.50368100    -0.85680
C1631       C  0.84177578  0.74865992  0.45429565     0.96650
C1632       C  0.84518138  0.83945639  0.56217941     0.96450
C1633       C  0.74706635  0.75328164  0.73257914    -0.12990
C1634       C  0.74467604  0.75291755  0.77387280    -0.14550
C1635       C  0.75466123  0.75098991  0.23343187    -0.12990
C1636       C  0.75234896  0.75075345  0.27474057    -0.14550
C1637       C  0.74756159  0.86838393  0.43814162    -0.12990
C1638       C  0.74800165  0.89086638  0.43258782    -0.14550
C1639       C  0.75252009  0.63590091  0.56761562    -0.12990
C1640       C  0.75232887  0.61344069  0.57219233    -0.14550
C1641       C  0.74589676  0.99826126  0.73118461    -0.12990
C1642       C  0.74664236  0.50636990  0.77025486    -0.14550
C1643       C  0.75427136  0.99750904  0.23226922    -0.12990
C1644       C  0.75513344  0.50577197  0.27125745    -0.14550
C1645       C  0.74923592  0.87064381  0.94032163    -0.12990
C1646       C  0.75057313  0.89334878  0.93289433    -0.14550
C1647       C  0.74985286  0.61050772  0.07230816    -0.12990
C1648       C  0.75083231  0.63316206  0.06575449    -0.14550
C1649       C  0.89220520  0.63151454  0.51776863    -0.12990
C1650       C  0.87235915  0.61144959  0.50188682    -0.14550
C1651       C  0.60881752  0.87210947  0.48721924    -0.12990
C1652       C  0.62902320  0.89222125  0.50198808    -0.14550
C1653       C  0.86553021  0.74529418  0.43860716    -0.12990
C1654       C  0.88659696  0.74379528  0.42835163    -0.14550
C1655       C  0.63411939  0.75912599  0.56867149    -0.12990
C1656       C  0.61308860  0.76078279  0.57874274    -0.14550
C1657       C  0.00093604  0.76259408  0.77645369    -0.12990
C1658       C  0.99501066  0.76117464  0.73527062    -0.14550
C1659       C  0.50409593  0.74338325  0.27113543    -0.12990
C1660       C  0.99819301  0.74192419  0.22991927    -0.14550
C1661       C  0.85919099  0.62089774  0.98591394    -0.12990
C1662       C  0.88035615  0.63925884  0.00266064    -0.14550
C1663       C  0.64012366  0.88377513  0.01653576    -0.12990
C1664       C  0.61868565  0.86536399  0.00075264    -0.14550
C1665       C  0.87762648  0.74014616  0.91303892    -0.12990
C1666       C  0.85561133  0.74069410  0.91697159    -0.14550
C1667       C  0.62117895  0.76299881  0.09346748    -0.12990
C1668       C  0.64319230  0.76237901  0.08985023    -0.14550
C1669       C  0.89372124  0.88484385  0.57257188    -0.12990
C1670       C  0.87185738  0.86361507  0.57363258    -0.14550
C1671       C  0.62883381  0.64069398  0.43038463    -0.12990
C1672       C  0.60701745  0.61933926  0.42975673    -0.14550
C1673       C  0.89199218  0.50037284  0.52289327    -0.12990
C1674       C  0.87167237  0.99835050  0.54192514    -0.14550
C1675       C  0.62954227  0.50648217  0.45915723    -0.12990
C1676       C  0.60901648  0.50422130  0.47767530    -0.14550
C1677       C  0.47269533  0.87413862  0.49167829    -0.12990
C1678       C  0.96877437  0.85394831  0.51343119    -0.14550
C1679       C  0.52684466  0.63001278  0.51241398    -0.12990
C1680       C  0.53076655  0.65068696  0.49219741    -0.14550
C1681       C  0.50345111  0.00226450  0.72910939    -0.12990
C1682       C  0.49982127  0.49957192  0.77036573    -0.14550
C1683       C  0.00017554  0.50344843  0.22942638    -0.12990
C1684       C  0.49664258  0.50086113  0.27071133    -0.14550
C1685       C  0.87126060  0.86226719  0.07140174    -0.12990
C1686       C  0.89262980  0.88391121  0.07030688    -0.14550
C1687       C  0.60762574  0.61980867  0.93208411    -0.12990
C1688       C  0.62898420  0.64154928  0.93270594    -0.14550
C1689       C  0.89244421  0.99988272  0.01573928    -0.12990
C1690       C  0.87227838  0.99881725  0.03377753    -0.14550
C1691       C  0.62876372  0.50530165  0.96791758    -0.12990
C1692       C  0.60835483  0.50401233  0.98535528    -0.14550
C1693       C  0.48145319  0.85119267  0.99133298    -0.12990
C1694       C  0.48431739  0.87202203  0.97164303    -0.14550
C1695       C  0.01533462  0.63099416  0.03006422    -0.12990
C1696       C  0.01809702  0.65213650  0.01162181    -0.14550
loop_ 
_geom_bond_atom_site_label_1 
_geom_bond_atom_site_label_2 
_geom_bond_distance 
_geom_bond_site_symmetry_2 
_ccdc_geom_bond_type 
N1            N2   1.321       .  A
N1          N431   1.320       .  A
N1          Mn30   2.190       .  S
N2            C9   1.345       .  A
N3            N4   1.319   1_655  A
N3         N1277   1.319   1_545  A
N3          Mn19   2.193       .  S
N4           C10   1.346   1_445  A
N5            N6   1.329       .  A
N5         N1275   1.319       .  A
N5          Mn30   2.251       .  S
N6         C1282   1.360       .  A
N7            N8   1.323       .  A
N7          N425   1.320   1_545  A
N7         Mn867   2.200       .  S
N8          C433   1.347   1_545  A
C9          N432   1.347       .  A
C9          C417   1.436   1_556  S
C10        N1278   1.360       .  A
C10         C410   1.451       .  S
N11          N17   1.317       .  A
N11          N12   1.320       .  A
N11         Mn41   2.205   1_556  S
N12          C20   1.348       .  A
N13          N14   1.313       .  A
N13         N863   1.318       .  A
N13        Mn867   2.174   1_554  S
N14          C21   1.338       .  A
N15          N16   1.329       .  A
N15         N861   1.318   1_455  A
N15         Mn41   2.223       .  S
N16         C869   1.358       .  A
N17          N18   1.330       .  A
N17         Mn19   2.242   1_455  S
N18          C20   1.361       .  A
Mn19        N855   2.200       .  S
Mn19        N861   2.173   1_556  S
Mn19        Cl43   2.518       .  S
C20         C415   1.457       .  S
C21         N864   1.358       .  A
C21         C423   1.438       .  S
N22          N23   1.329       .  A
N22         N876   1.318       .  A
N22         Mn30   2.224       .  S
N23         C879   1.359       .  A
N24          N26   1.317       .  A
N24          N25   1.330       .  A
N24         Mn42   2.239       .  S
N25          C32   1.360       .  A
N26          N27   1.321       .  A
N26         Mn30   2.210   1_554  S
N27          C32   1.350       .  A
N28          N29   1.313       .  A
N28         N870   1.318   1_455  A
N28        Mn890   2.174   1_556  S
N29          C31   1.338   1_455  A
Mn30      Cl1315   2.571       .  S
C31         N871   1.359       .  A
C31         C422   1.438       .  S
C32         C414   1.458       .  S
N33          N34   1.328       .  A
N33        N1311   1.318   1_545  A
N33         Mn41   2.247       .  S
N34        C1316   1.360       .  A
N35          N36   1.323       .  A
N35         N461   1.319       .  A
N35        Mn890   2.199       .  S
N36         C469   1.347       .  A
N37          N38   1.320       .  A
N37         N459   1.319   1_545  A
N37         Mn41   2.188       .  S
N38          C45   1.344       .  A
N39          N40   1.320       .  A
N39        N1305   1.318       .  A
N39         Mn42   2.192       .  S
N40          C44   1.346       .  A
Mn41        Cl43   2.570   1_454  S
Mn42        N876   2.174   1_554  S
Mn42        N883   2.199       .  S
Mn42      Cl1315   2.517   1_554  S
Cl43      Mn1302   2.571   1_545  S
Cl43      Mn1314   2.517   1_646  S
C44        N1306   1.360       .  A
C44         C835   1.451       .  S
C45         N460   1.347   1_545  A
C45         C420   1.435   1_554  S
N46          N47   1.320   1_655  A
N46        N1324   1.317   1_545  A
N46         Mn75   2.187       .  S
N47          C54   1.346   1_445  A
N48          N49   1.321       .  A
N48         N474   1.316       .  A
N48         Mn64   2.181       .  S
N49         C479   1.346       .  A
N50          N51   1.324       .  A
N50         N472   1.316   1_545  A
N50        Mn923   2.204       .  S
N51          C55   1.349       .  A
N52          N53   1.328       .  A
N52        N1318   1.317       .  A
N52         Mn64   2.249       .  S
N53        C1326   1.360       .  A
C54        N1325   1.360       .  A
C54         C412   1.451   1_565  S
C55         N473   1.346   1_545  A
C55         C401   1.442       .  S
N56          N62   1.317       .  A
N56          N57   1.331       .  A
N56        Mn934   2.258       .  S
N57          C65   1.362       .  A
N58          N59   1.324       .  A
N58         N908   1.320       .  A
N58         Mn64   2.197       .  S
N59         C914   1.351       .  A
N60          N61   1.308       .  A
N60         N906   1.320   1_455  A
N60         Mn86   2.156       .  S
N61          C66   1.330   1_455  A
N62          N63   1.320       .  A
N62         Mn64   2.196       .  S
N63          C65   1.348       .  A
Mn64      Cl1360   2.562       .  S
C65         C397   1.461       .  S
C66         N907   1.351       .  A
C66         C405   1.419       .  S
N67          N73   1.320   1_655  A
N67         N916   1.308       .  A
N67         Mn75   2.154       .  S
N68         N915   1.308       .  A
N68          C76   1.330       .  A
N69          N71   1.317       .  A
N69          N70   1.319       .  A
N69         Mn87   2.192       .  S
N70          C77   1.346       .  A
N71          N72   1.332       .  A
N71         Mn75   2.260   1_455  S
N72          C77   1.363       .  A
N73          N74   1.324       .  A
N73         Mn87   2.197       .  S
N74         C924   1.351       .  A
Mn75        N898   2.204       .  S
Mn75        Cl88   2.496   1_655  S
C76         N922   1.351       .  A
C76        C1255   1.418       .  S
C77         C400   1.459       .  S
N78          N79   1.324       .  A
N78         N508   1.316       .  A
N78         Mn86   2.202       .  S
N79         C513   1.349       .  A
N80          N81   1.328       .  A
N80         N506   1.316   1_545  A
N80         Mn87   2.248       .  S
N81        C1362   1.361       .  A
N82         N504   1.316       .  A
N82         N931   1.319   1_455  A
N82         Mn86   2.186       .  S
N83         N930   1.319       .  A
N83          C90   1.346       .  A
N84          N85   1.321       .  A
N84         N502   1.316   1_545  A
N84         Mn87   2.179       .  S
N85          C89   1.345       .  A
Mn86        N904   2.258   1_455  S
Mn86       Cl512   2.493       .  S
Mn87        Cl88   2.561       .  S
Cl88      Mn1336   2.562   1_445  S
Cl88       Mn510   2.493   1_545  S
C89         N503   1.349   1_545  A
C89         C404   1.440       .  S
C90        N1353   1.361       .  A
C90        C1257   1.451       .  S
N91          N92   1.327       .  A
N91          N97   1.315       .  A
N91        Mn120   2.223       .  S
N92          C99   1.358       .  A
N93          N95   1.318   1_556  A
N93          N94   1.325       .  A
N93        Mn109   2.218       .  S
N94         C100   1.357       .  A
N95          N96   1.308       .  A
N95        Mn120   2.141       .  S
N96         C100   1.331   1_554  A
N97          N98   1.312       .  A
N97        Mn109   2.167   1_554  S
N98          C99   1.342       .  A
C99         C395   1.432       .  S
C100        C392   1.419   1_556  S
N101        N102   1.313       .  A
N101        N955   1.314       .  A
N101       Mn131   2.156       .  S
N102        C958   1.340       .  A
N103        N104   1.325       .  A
N103        N953   1.315   1_455  A
N103       Mn109   2.202       .  S
N104        C959   1.351       .  A
N105        N106   1.320       .  A
N105        N951   1.315       .  A
N105       Mn131   2.189       .  S
N106        C111   1.347       .  A
N107        N108   1.327       .  A
N107        N949   1.315   1_455  A
N107       Mn109   2.233       .  S
N108        C110   1.360       .  A
Mn109      Cl981   2.555   1_456  S
C110        N950   1.340   1_455  A
C110       C1233   1.433       .  S
C111        N952   1.351       .  A
C111        C424   1.443   1_556  S
N112        N113   1.321       .  A
N112        N966   1.316   1_455  A
N112       Mn120   2.192       .  S
N113        C969   1.347   1_455  A
N114        N115   1.327       .  A
N114        N964   1.315       .  A
N114       Mn132   2.233       .  S
N115        C122   1.360       .  A
N116        N117   1.313       .  A
N116        N962   1.315   1_455  A
N116       Mn120   2.157       .  S
N117        C970   1.340   1_455  A
N118        N119   1.325       .  A
N118        N960   1.316       .  A
N118       Mn132   2.202       .  S
N119        C121   1.350       .  A
Mn120      Cl981   2.497   1_455  S
C121        N961   1.347       .  A
C121       C1269   1.444   1_554  S
C122        N965   1.340       .  A
C122        C388   1.433       .  S
N123        N124   1.308       .  A
N123        N129   1.318   1_556  A
N123       Mn131   2.141       .  S
N124        C134   1.330   1_556  A
N125        N126   1.312       .  A
N125        N127   1.315       .  A
N125       Mn132   2.165   1_556  S
N126        C135   1.342       .  A
N127        N128   1.327       .  A
N127       Mn131   2.223       .  S
N128        C135   1.357       .  A
N129        N130   1.325       .  A
N129       Mn132   2.219       .  S
N130        C134   1.357       .  A
Mn131      Cl133   2.496   1_556  S
Mn132      Cl133   2.555       .  S
Cl133      Mn957   2.555   1_554  S
Cl133      Mn968   2.498       .  S
C134        C390   1.419       .  S
C135        C393   1.431       .  S
N136        N137   1.326       .  A
N136        N142   1.313       .  A
N136       Mn165   2.226       .  S
N137        C992   1.363       .  A
N138        N140   1.316       .  A
N138        N139   1.327       .  A
N138       Mn154   2.227       .  S
N139        C145   1.361       .  A
N140        N141   1.303       .  A
N140       Mn165   2.115       .  S
N141        C145   1.326       .  A
N142        N991   1.303       .  A
N142       Mn154   2.122       .  S
N143        N990   1.303       .  A
N143        C144   1.330       .  A
C144        N985   1.363       .  A
C144        C408   1.409       .  S
C145        C377   1.410       .  S
N146        N147   1.319       .  A
N146       N1000   1.317       .  A
N146       Mn176   2.181   1_655  S
N147       C1003   1.344       .  A
N148        N149   1.324       .  A
N148        N150   1.313       .  A
N148      Mn1002   2.204   1_455  S
N149        C156   1.350       .  A
N150        N151   1.328       .  A
N150       Mn176   2.229       .  S
N151        C156   1.358       .  A
N152        N153   1.322       .  A
N152        N994   1.317       .  A
N152       Mn154   2.201       .  S
N153        C155   1.352       .  A
Mn154       N996   2.204       .  S
Mn154      Cl178   2.538       .  S
C155        N995   1.344       .  A
C155        C386   1.435       .  S
C156        C384   1.460       .  S
N157        N158   1.328       .  A
N157        N163   1.313       .  A
N157       Mn165   2.226       .  S
N158        C166   1.357       .  A
N159        N160   1.322       .  A
N159       N1009   1.317       .  A
N159      Mn1025   2.201       .  S
N160        C167   1.352       .  A
N161        N162   1.319       .  A
N161       N1007   1.317       .  A
N161       Mn165   2.180       .  S
N162       C1015   1.344       .  A
N163        N164   1.324       .  A
N163       Mn177   2.205       .  S
N164        C166   1.351       .  A
Mn165      Cl178   2.507       .  S
C166        C382   1.459       .  S
C167       N1010   1.344       .  A
C167        C387   1.436       .  S
N168        N169   1.303       .  A
N168        N174   1.316       .  A
N168       Mn176   2.116       .  S
N169        C179   1.326       .  A
N170        N171   1.303       .  A
N170       N1020   1.313       .  A
N170       Mn177   2.122       .  S
N171        C180   1.330       .  A
N172        N173   1.327       .  A
N172       N1018   1.313       .  A
N172       Mn176   2.227   1_655  S
N173       C1028   1.363       .  A
N174        N175   1.327       .  A
N174      Mn1025   2.229       .  S
N175        C179   1.361       .  A
Mn176     Cl1026   2.510   1_455  S
Mn177      N1007   2.201       .  S
Mn177      N1022   2.229       .  S
Mn177      Cl178   2.536       .  S
Cl178     Mn1024   2.509       .  S
C179        C379   1.410       .  S
C180       N1021   1.363       .  A
C180        C406   1.410       .  S
N181        N182   1.323       .  A
N181        N187   1.314       .  A
N181       Mn210   2.205       .  S
N182        C189   1.350       .  A
N183        N184   1.320       .  A
N183        N609   1.318       .  A
N183       Mn623   2.198       .  S
N184        C190   1.348       .  A
N185        N186   1.318       .  A
N185        N607   1.318   1_545  A
N185       Mn210   2.177       .  S
N186        C614   1.345   1_545  A
N187        N188   1.326       .  A
N187       Mn199   2.215   1_545  S
N188        C189   1.355       .  A
C189        C375   1.452       .  S
C190        N610   1.345       .  A
C190        C371   1.428       .  S
N191        N197   1.314   1_556  A
N191        N192   1.305       .  A
N191       Mn221   2.125       .  S
N192        C200   1.331   1_556  A
N193        N194   1.309       .  A
N193        N619   1.316   1_544  A
N193       Mn199   2.153   1_545  S
N194        C201   1.337   1_554  A
N195        N196   1.328       .  A
N195        N617   1.316   1_556  A
N195       Mn221   2.223       .  S
N196        C625   1.359       .  A
N197        N198   1.327       .  A
N197       Mn623   2.230       .  S
N198        C200   1.362       .  A
Mn199       N607   2.198       .  S
Mn199       N621   2.231       .  S
Mn199      Cl223   2.530   1_565  S
C200        C391   1.414       .  S
C201        N620   1.359   1_545  A
C201        C419   1.426       .  S
N202        N203   1.328       .  A
N202        N208   1.315       .  A
N202       Mn210   2.227       .  S
N203        C635   1.360   1_545  A
N204        N206   1.314   1_556  A
N204        N205   1.327       .  A
N204       Mn222   2.233       .  S
N205        C212   1.363       .  A
N206        N207   1.304       .  A
N206       Mn210   2.122       .  S
N207        C212   1.330   1_554  A
N208        N633   1.309   1_544  A
N208       Mn222   2.150   1_554  S
N209        N632   1.309   1_556  A
N209        C211   1.336   1_556  A
Mn210      Cl223   2.523       .  S
C211        N627   1.360       .  A
C211        C418   1.427       .  S
C212        C389   1.414       .  S
N213        N214   1.318       .  A
N213        N643   1.317       .  A
N213       Mn221   2.178       .  S
N214        C648   1.345       .  A
N215        N216   1.326       .  A
N215        N217   1.314       .  A
N215       Mn646   2.217       .  S
N216        C225   1.356       .  A
N217        N218   1.322       .  A
N217       Mn221   2.201       .  S
N218        C225   1.349       .  A
N219        N220   1.320       .  A
N219        N637   1.317       .  A
N219       Mn222   2.196       .  S
N220        C224   1.348       .  A
Mn221      Cl647   2.523   1_556  S
Mn222       N639   2.217   1_545  S
Mn222      Cl223   2.530   1_556  S
Cl223      Mn645   2.523   1_544  S
C224        N638   1.345       .  A
C224        C370   1.428       .  S
C225        C374   1.451       .  S
N226        N227   1.325       .  A
N226        N232   1.313       .  A
N226       Mn255   2.215       .  S
N227        C234   1.354       .  A
N228        N229   1.320       .  A
N228        N654   1.319       .  A
N228       Mn244   2.198       .  S
N229        C235   1.348       .  A
N230        N231   1.318       .  A
N230        N652   1.319   1_545  A
N230       Mn255   2.181       .  S
N231        C659   1.345   1_545  A
N232        N233   1.323       .  A
N232       Mn668   2.201   1_545  S
N233        C234   1.352       .  A
C234        C368   1.451       .  S
C235        N655   1.345       .  A
C235        C369   1.428       .  S
N236        N242   1.315       .  A
N236        N237   1.304       .  A
N236       Mn266   2.113       .  S
N237        C245   1.327       .  A
N238        N240   1.316       .  A
N238        N663   1.309       .  A
N238       Mn244   2.148       .  S
N239        N662   1.309       .  A
N239        C246   1.335       .  A
N240        N241   1.329       .  A
N240       Mn266   2.238       .  S
N241        C670   1.361       .  A
N242        N243   1.327       .  A
N242       Mn244   2.231       .  S
N243        C245   1.361       .  A
Mn244       N656   2.201       .  S
Mn244      Cl268   2.530       .  S
C245        C380   1.412       .  S
C246        N665   1.361   1_545  A
C246        C403   1.431       .  S
N247        N248   1.330       .  A
N247        N677   1.316   1_545  A
N247       Mn255   2.243       .  S
N248        C680   1.362   1_545  A
N249        N251   1.315       .  A
N249        N250   1.327       .  A
N249       Mn267   2.232       .  S
N250        C257   1.361       .  A
N251        N252   1.303       .  A
N251       Mn255   2.112       .  S
N252        C257   1.327       .  A
N253        N254   1.309       .  A
N253        N671   1.316       .  A
N253       Mn691   2.145       .  S
N254        C256   1.334       .  A
Mn255      Cl692   2.518       .  S
C256        N672   1.362       .  A
C256        C402   1.432       .  S
C257        C378   1.411       .  S
N258        N259   1.318       .  A
N258        N688   1.319       .  A
N258       Mn266   2.180       .  S
N259        C693   1.345       .  A
N260        N261   1.323       .  A
N260        N262   1.313       .  A
N260       Mn691   2.201       .  S
N261        C270   1.352       .  A
N262        N263   1.324       .  A
N262       Mn266   2.211       .  S
N263        C270   1.353       .  A
N264        N265   1.320       .  A
N264        N682   1.319       .  A
N264       Mn267   2.197       .  S
N265        C269   1.348       .  A
Mn266      Cl268   2.518       .  S
Mn267       N677   2.145   1_545  S
Mn267       N684   2.201   1_545  S
Mn267      Cl692   2.529       .  S
Cl268      Mn679   2.518       .  S
Cl268      Mn691   2.529       .  S
C269        N683   1.345       .  A
C269        C372   1.428       .  S
C270        C366   1.449       .  S
N271        N272   1.330       .  A
N271        N277   1.318       .  A
N271       Mn300   2.251       .  S
N272        C279   1.360       .  A
N273        N275   1.316       .  A
N273        N274   1.322       .  A
N273       Mn289   2.199       .  S
N274        C280   1.350       .  A
N275        N276   1.320       .  A
N275       Mn300   2.212   1_554  S
N276        C280   1.353       .  A
N277        N278   1.320       .  A
N277       Mn289   2.200   1_556  S
N278        C279   1.348       .  A
C279        C416   1.457       .  S
C280        C396   1.437       .  S
N281        N287   1.318       .  A
N281        N282   1.324       .  A
N281       Mn311   2.222       .  S
N282        C290   1.356       .  A
N283        N284   1.322       .  A
N283        N285   1.318       .  A
N283       Mn289   2.204       .  S
N284        C291   1.351       .  A
N285        N286   1.326       .  A
N285       Mn311   2.238       .  S
N286        C291   1.356       .  A
N287        N288   1.316       .  A
N287       Mn289   2.184       .  S
N288        C290   1.344       .  A
Mn289      Cl313   2.534       .  S
C290        C363   1.434       .  S
C291        C376   1.452       .  S
N292        N293   1.326       .  A
N292        N298   1.318       .  A
N292       Mn300   2.239       .  S
N293        C301   1.357       .  A
N294        N296   1.317       .  A
N294        N295   1.316       .  A
N294       Mn312   2.181       .  S
N295        C302   1.344       .  A
N296        N297   1.324       .  A
N296       Mn300   2.221       .  S
N297        C302   1.356       .  A
N298        N299   1.322       .  A
N298       Mn312   2.201       .  S
N299        C301   1.350       .  A
Mn300      Cl313   2.573   1_556  S
C301        C373   1.451       .  S
C302        C362   1.433       .  S
N303        N304   1.320       .  A
N303        N309   1.316       .  A
N303       Mn311   2.211   1_556  S
N304        C314   1.353       .  A
N305        N306   1.319       .  A
N305        N307   1.318       .  A
N305       Mn312   2.194   1_554  S
N306        C315   1.347       .  A
N307        N308   1.331       .  A
N307       Mn311   2.255       .  S
N308        C315   1.361       .  A
N309        N310   1.321       .  A
N309       Mn312   2.197       .  S
N310        C314   1.350       .  A
Mn311      Cl313   2.573       .  S
Mn312      Cl313   2.533   1_556  S
C314        C394   1.436       .  S
C315        C413   1.457       .  S
N316        N317   1.330       .  A
N316        N322   1.318       .  A
N316       Mn345   2.248       .  S
N317        C324   1.360       .  A
N318        N320   1.318       .  A
N318        N319   1.327       .  A
N318       Mn334   2.235       .  S
N319        C325   1.357       .  A
N320        N321   1.325       .  A
N320       Mn345   2.224       .  S
N321        C325   1.354       .  A
N322        N323   1.321       .  A
N322       Mn334   2.205       .  S
N323        C324   1.349       .  A
C324        C399   1.460       .  S
C325        C383   1.461       .  S
N326        N332   1.320       .  A
N326        N327   1.324       .  A
N326       Mn356   2.227       .  S
N327        C335   1.355       .  A
N328        N329   1.324       .  A
N328        N330   1.320       .  A
N328       Mn334   2.222       .  S
N329        C336   1.353       .  A
N330        N331   1.324       .  A
N330       Mn356   2.227       .  S
N331        C336   1.353       .  A
N332        N333   1.317       .  A
N332       Mn334   2.186       .  S
N333        C335   1.344       .  A
Mn334      Cl358   2.544       .  S
C335        C361   1.434       .  S
C336        C367   1.451       .  S
N337        N338   1.324       .  A
N337        N343   1.319       .  A
N337       Mn345   2.225       .  S
N338        C346   1.353       .  A
N339        N341   1.319       .  A
N339        N340   1.317       .  A
N339       Mn357   2.184       .  S
N340        C347   1.344       .  A
N341        N342   1.324       .  A
N341       Mn345   2.225       .  S
N342        C347   1.355       .  A
N343        N344   1.323       .  A
N343       Mn357   2.218       .  S
N344        C346   1.352       .  A
Mn345      Cl358   2.576       .  S
C346        C365   1.449       .  S
C347        C364   1.434       .  S
N348        N349   1.325       .  A
N348        N354   1.317       .  A
N348       Mn356   2.223       .  S
N349        C359   1.354       .  A
N350        N351   1.320       .  A
N350        N352   1.318       .  A
N350       Mn357   2.200       .  S
N351        C360   1.348       .  A
N352        N353   1.331       .  A
N352       Mn356   2.255       .  S
N353        C360   1.361       .  A
N354        N355   1.326       .  A
N354       Mn357   2.233       .  S
N355        C359   1.356       .  A
Mn356      Cl358   2.577       .  S
Mn357      Cl358   2.542       .  S
C359        C381   1.460       .  S
C360        C398   1.461       .  S
C361        C362   1.205       .  T
C363        C364   1.205       .  T
C365        C366   1.214       .  T
C367        C368   1.215       .  T
C369        C794   1.202       .  T
C370        C793   1.202   1_545  T
C371        C796   1.202       .  T
C372        C795   1.202   1_545  T
C373        C374   1.215       .  T
C375        C376   1.215       .  T
C377        C378   1.196       .  T
C379        C380   1.196       .  T
C381        C382   1.220       .  T
C383        C384   1.220       .  T
C385        C958   1.433       .  S
C385        C386   1.205       .  T
C387       C1236   1.206   1_455  T
C388       C1235   1.206       .  T
C389        C390   1.198   1_556  T
C391        C392   1.198       .  T
C393        C394   1.205       .  T
C395        C396   1.205       .  T
C397        C398   1.221       .  T
C399        C400   1.220       .  T
C401        C826   1.208   1_545  T
C402        C825   1.208       .  T
C403        C404   1.207       .  T
C405       C1254   1.198       .  T
C406       C1253   1.198       .  T
C407        C924   1.418       .  S
C407        C408   1.197       .  T
C409        C938   1.451       .  S
C409        C834   1.215   1_455  T
C410        C833   1.215   1_665  T
C411        C468   1.451       .  S
C411       C1260   1.215       .  T
C412       C1259   1.215   1_655  T
C413        C414   1.219       .  T
C415        C416   1.219       .  T
C417        C418   1.205       .  T
C419        C420   1.204       .  T
C421        C969   1.444   1_556  S
C421        C422   1.210       .  T
C423        C424   1.210       .  T
N425        N426   1.321       .  A
N425       Mn454   2.190       .  S
N426        C433   1.345       .  A
N427        N853   1.319       .  A
N427        N428   1.320   1_655  A
N427       Mn443   2.193       .  S
N428        C434   1.346   1_455  A
N429        N851   1.319   1_565  A
N429        N430   1.329       .  A
N429       Mn454   2.251       .  S
N430        C858   1.360       .  A
N431        N432   1.323       .  A
N431      Mn1291   2.200       .  S
C433        C841   1.436   1_556  S
C434        N854   1.360       .  A
C434        C834   1.451       .  S
N435        N441   1.317       .  A
N435        N436   1.320       .  A
N435       Mn465   2.205   1_556  S
N436        C444   1.348       .  A
N437        N438   1.313       .  A
N437       N1287   1.318       .  A
N437      Mn1291   2.174   1_554  S
N438        C445   1.338       .  A
N439       N1285   1.318   1_455  A
N439        N440   1.329       .  A
N439       Mn465   2.223       .  S
N440       C1293   1.358       .  A
N441        N442   1.330       .  A
N441       Mn443   2.242   1_455  S
N442        C444   1.361       .  A
Mn443      N1279   2.200       .  S
Mn443      N1285   2.174   1_556  S
Mn443      Cl467   2.518   1_655  S
C444        C839   1.457       .  S
C445       N1288   1.358       .  A
C445        C847   1.438       .  S
N446        N447   1.329       .  A
N446       N1300   1.318       .  A
N446       Mn454   2.224       .  S
N447       C1303   1.359       .  A
N448        N450   1.317       .  A
N448        N449   1.330       .  A
N448       Mn466   2.239       .  S
N449        C456   1.360       .  A
N450        N451   1.321       .  A
N450       Mn454   2.210   1_554  S
N451        C456   1.350       .  A
N452       N1294   1.318   1_455  A
N452        N453   1.313       .  A
N452      Mn1314   2.174   1_556  S
N453        C455   1.338   1_455  A
Mn454      Cl891   2.571   1_565  S
C455       N1295   1.359       .  A
C455        C846   1.438       .  S
C456        C838   1.458       .  S
N457        N458   1.328       .  A
N457        N887   1.318       .  A
N457       Mn465   2.247       .  S
N458        C892   1.360       .  A
N459        N460   1.323       .  A
N459      Mn1314   2.199       .  S
N461        N462   1.320       .  A
N461       Mn465   2.188       .  S
N462        C469   1.344       .  A
N463        N881   1.318   1_565  A
N463        N464   1.320       .  A
N463       Mn466   2.192       .  S
N464        C468   1.346   1_565  A
Mn465      Cl467   2.570   1_554  S
Mn466      N1300   2.174   1_554  S
Mn466      N1307   2.199       .  S
Mn466      Cl891   2.517   1_564  S
Cl467      Mn878   2.571   1_455  S
Cl467      Mn890   2.517   1_556  S
C468        N882   1.360       .  A
C469        C844   1.435   1_554  S
N470        N471   1.320   1_655  A
N470        N900   1.317       .  A
N470       Mn499   2.187       .  S
N471        C478   1.346   1_455  A
N472        N473   1.321       .  A
N472       Mn488   2.181       .  S
N474        N475   1.324       .  A
N474      Mn1347   2.204       .  S
N475        C479   1.349       .  A
N476        N894   1.317   1_565  A
N476        N477   1.328       .  A
N476       Mn488   2.249       .  S
N477        C902   1.360       .  A
C478        N901   1.360       .  A
C478        C836   1.451       .  S
C479        C825   1.442       .  S
N480        N486   1.317       .  A
N480        N481   1.331       .  A
N480      Mn1358   2.258       .  S
N481        C489   1.362       .  A
N482        N483   1.324       .  A
N482       N1332   1.320       .  A
N482       Mn488   2.197       .  S
N483       C1338   1.351       .  A
N484       N1330   1.320   1_455  A
N484        N485   1.308       .  A
N484       Mn510   2.156       .  S
N485        C490   1.330   1_455  A
N486        N487   1.320       .  A
N486       Mn488   2.196       .  S
N487        C489   1.348       .  A
Mn488      Cl936   2.562   1_565  S
C489        C821   1.461       .  S
C490       N1331   1.351       .  A
C490        C829   1.419       .  S
N491       N1340   1.308       .  A
N491        N497   1.320   1_655  A
N491       Mn499   2.153       .  S
N492       N1339   1.308       .  A
N492        C500   1.330       .  A
N493        N495   1.317       .  A
N493        N494   1.319       .  A
N493       Mn511   2.192       .  S
N494        C501   1.346       .  A
N495        N496   1.332       .  A
N495       Mn499   2.260   1_455  S
N496        C501   1.363       .  A
N497        N498   1.324       .  A
N497       Mn511   2.197       .  S
N498       C1348   1.351       .  A
Mn499      N1322   2.204       .  S
Mn499      Cl512   2.496   1_655  S
C500       N1346   1.351       .  A
C500       C1679   1.418       .  S
C501        C824   1.459       .  S
N502        N503   1.324       .  A
N502       Mn510   2.202       .  S
N504        N505   1.328       .  A
N504       Mn511   2.248       .  S
N505        C938   1.361       .  A
N506       N1355   1.319   1_455  A
N506       Mn510   2.186       .  S
N507       N1354   1.319       .  A
N507        C514   1.346   1_565  A
N508        N509   1.321       .  A
N508       Mn511   2.179       .  S
N509        C513   1.345       .  A
Mn510      N1328   2.258   1_455  S
Mn511      Cl512   2.561       .  S
Cl512      Mn912   2.562   1_455  S
C513        C828   1.440       .  S
C514        N929   1.361       .  A
C514       C1681   1.451       .  S
N515        N516   1.327       .  A
N515        N521   1.315       .  A
N515       Mn544   2.224       .  S
N516        C523   1.358       .  A
N517        N519   1.318   1_556  A
N517        N518   1.325       .  A
N517       Mn533   2.218       .  S
N518        C524   1.357       .  A
N519        N520   1.308       .  A
N519       Mn544   2.142       .  S
N520        C524   1.331   1_554  A
N521        N522   1.312       .  A
N521       Mn533   2.167   1_554  S
N522        C523   1.342       .  A
C523        C819   1.432       .  S
C524        C816   1.419   1_556  S
N525       N1379   1.314       .  A
N525        N526   1.313       .  A
N525       Mn555   2.156       .  S
N526       C1382   1.340       .  A
N527        N528   1.325       .  A
N527       N1377   1.315   1_455  A
N527       Mn533   2.203       .  S
N528       C1383   1.351       .  A
N529       N1375   1.315       .  A
N529        N530   1.320       .  A
N529       Mn555   2.189       .  S
N530        C535   1.347       .  A
N531       N1373   1.315   1_455  A
N531        N532   1.327       .  A
N531       Mn533   2.233       .  S
N532        C534   1.360       .  A
Mn533     Cl1405   2.555   1_456  S
C534       N1374   1.340   1_455  A
C534       C1657   1.433       .  S
C535       N1376   1.351       .  A
C535        C848   1.443   1_556  S
N536        N537   1.321       .  A
N536       N1390   1.316   1_455  A
N536       Mn544   2.192       .  S
N537       C1393   1.347   1_455  A
N538       N1388   1.315       .  A
N538        N539   1.327       .  A
N538       Mn556   2.233       .  S
N539        C546   1.360       .  A
N540       N1386   1.315   1_455  A
N540        N541   1.313       .  A
N540       Mn544   2.157       .  S
N541       C1394   1.340   1_455  A
N542       N1384   1.316       .  A
N542        N543   1.325       .  A
N542       Mn556   2.202       .  S
N543        C545   1.350       .  A
Mn544     Cl1405   2.497   1_455  S
C545       N1385   1.347       .  A
C545       C1693   1.444   1_554  S
C546       N1389   1.340       .  A
C546        C812   1.433       .  S
N547        N548   1.308       .  A
N547        N553   1.318   1_556  A
N547       Mn555   2.141       .  S
N548        C558   1.330   1_556  A
N549        N550   1.312       .  A
N549        N551   1.315       .  A
N549       Mn556   2.165   1_556  S
N550        C559   1.342       .  A
N551        N552   1.327       .  A
N551       Mn555   2.223       .  S
N552        C559   1.357       .  A
N553        N554   1.325       .  A
N553       Mn556   2.219       .  S
N554        C558   1.357       .  A
Mn555      Cl557   2.496   1_556  S
Mn556      Cl557   2.555       .  S
Cl557     Mn1381   2.555   1_554  S
Cl557     Mn1392   2.498       .  S
C558        C814   1.419       .  S
C559        C817   1.431       .  S
N560        N561   1.326       .  A
N560        N566   1.313       .  A
N560       Mn589   2.226       .  S
N561       C1416   1.363       .  A
N562        N564   1.316       .  A
N562        N563   1.327       .  A
N562       Mn578   2.227       .  S
N563        C569   1.361       .  A
N564        N565   1.303       .  A
N564       Mn589   2.115       .  S
N565        C569   1.326       .  A
N566       N1415   1.303       .  A
N566       Mn578   2.122       .  S
N567       N1414   1.303       .  A
N567        C568   1.330       .  A
C568       N1409   1.363       .  A
C568        C832   1.409       .  S
C569        C801   1.410       .  S
N570       N1424   1.317       .  A
N570        N571   1.319       .  A
N570       Mn600   2.181   1_655  S
N571       C1427   1.344       .  A
N572        N573   1.324       .  A
N572        N574   1.313       .  A
N572      Mn1426   2.204   1_455  S
N573        C580   1.350       .  A
N574        N575   1.328       .  A
N574       Mn600   2.229       .  S
N575        C580   1.358       .  A
N576       N1418   1.317       .  A
N576        N577   1.322       .  A
N576       Mn578   2.201       .  S
N577        C579   1.352       .  A
Mn578      N1420   2.204       .  S
Mn578      Cl602   2.538       .  S
C579       N1419   1.344       .  A
C579        C810   1.435       .  S
C580        C808   1.460       .  S
N581        N582   1.328       .  A
N581        N587   1.313       .  A
N581       Mn589   2.226       .  S
N582        C590   1.357       .  A
N583       N1433   1.317       .  A
N583        N584   1.322       .  A
N583      Mn1449   2.201       .  S
N584        C591   1.352       .  A
N585       N1431   1.317       .  A
N585        N586   1.319       .  A
N585       Mn589   2.180       .  S
N586       C1439   1.344       .  A
N587        N588   1.324       .  A
N587       Mn601   2.205       .  S
N588        C590   1.351       .  A
Mn589      Cl602   2.507       .  S
C590        C806   1.459       .  S
C591       N1434   1.344       .  A
C591        C811   1.436       .  S
N592        N593   1.303       .  A
N592        N598   1.316       .  A
N592       Mn600   2.116       .  S
N593        C603   1.326       .  A
N594        N595   1.303       .  A
N594       N1444   1.313       .  A
N594       Mn601   2.122       .  S
N595        C604   1.330       .  A
N596       N1442   1.313       .  A
N596        N597   1.327       .  A
N596       Mn600   2.227   1_655  S
N597       C1452   1.363       .  A
N598        N599   1.327       .  A
N598      Mn1449   2.229       .  S
N599        C603   1.361       .  A
Mn600     Cl1450   2.510   1_455  S
Mn601      N1431   2.201       .  S
Mn601      N1446   2.229       .  S
Mn601      Cl602   2.536       .  S
Cl602     Mn1448   2.509       .  S
C603        C803   1.410       .  S
C604       N1445   1.363       .  A
C604        C830   1.410       .  S
N605        N606   1.323       .  A
N605        N611   1.314       .  A
N605       Mn634   2.206       .  S
N606        C613   1.350       .  A
N607        N608   1.320       .  A
N608        C614   1.348       .  A
N609        N610   1.318       .  A
N609       Mn634   2.178       .  S
N611        N612   1.326       .  A
N611       Mn623   2.215       .  S
N612        C613   1.355       .  A
C613        C799   1.452       .  S
C614        C795   1.428       .  S
N615        N621   1.314   1_556  A
N615        N616   1.305       .  A
N615       Mn645   2.125       .  S
N616        C624   1.331   1_556  A
N617        N618   1.309       .  A
N617       Mn623   2.153       .  S
N618        C625   1.337   1_554  A
N619        N620   1.328       .  A
N619       Mn645   2.223       .  S
N621        N622   1.327       .  A
N622        C624   1.362       .  A
Mn623      Cl647   2.530       .  S
C624        C815   1.415       .  S
C625        C843   1.426       .  S
N626        N627   1.328       .  A
N626        N632   1.315       .  A
N626       Mn634   2.227       .  S
N628        N630   1.314   1_556  A
N628        N629   1.327       .  A
N628       Mn646   2.233       .  S
N629        C636   1.363       .  A
N630        N631   1.304       .  A
N630       Mn634   2.122       .  S
N631        C636   1.330   1_554  A
N632       Mn646   2.150   1_554  S
N633        C635   1.336   1_556  A
Mn634      Cl647   2.523       .  S
C635        C842   1.427       .  S
C636        C813   1.414       .  S
N637        N638   1.318       .  A
N637       Mn645   2.178   1_545  S
N639        N640   1.326       .  A
N639        N641   1.314       .  A
N640        C649   1.356       .  A
N641        N642   1.322       .  A
N641       Mn645   2.201       .  S
N642        C649   1.349       .  A
N643        N644   1.320       .  A
N643       Mn646   2.196       .  S
N644        C648   1.348       .  A
Mn646      Cl647   2.529   1_556  S
C648        C794   1.428       .  S
C649        C798   1.451       .  S
N650        N651   1.325       .  A
N650        N656   1.313       .  A
N650       Mn679   2.215       .  S
N651        C658   1.354       .  A
N652        N653   1.320       .  A
N652       Mn668   2.198       .  S
N653        C659   1.348       .  A
N654        N655   1.318       .  A
N654       Mn679   2.181       .  S
N656        N657   1.323       .  A
N657        C658   1.352       .  A
C658        C792   1.451       .  S
C659        C793   1.428       .  S
N660        N666   1.315       .  A
N660        N661   1.304       .  A
N660       Mn690   2.113       .  S
N661        C669   1.327       .  A
N662        N664   1.316   1_545  A
N662       Mn668   2.148   1_545  S
N663        C670   1.335       .  A
N664        N665   1.329       .  A
N664       Mn690   2.238       .  S
N666        N667   1.327       .  A
N666       Mn668   2.231       .  S
N667        C669   1.361       .  A
Mn668      Cl692   2.530   1_565  S
C669        C804   1.412       .  S
C670        C827   1.431       .  S
N671        N672   1.330       .  A
N671       Mn679   2.243       .  S
N673        N675   1.315       .  A
N673        N674   1.327       .  A
N673       Mn691   2.232       .  S
N674        C681   1.361       .  A
N675        N676   1.303       .  A
N675       Mn679   2.112       .  S
N676        C681   1.327       .  A
N677        N678   1.309       .  A
N678        C680   1.334       .  A
C680        C826   1.432       .  S
C681        C802   1.411       .  S
N682        N683   1.318       .  A
N682       Mn690   2.180   1_545  S
N684        N685   1.323       .  A
N684        N686   1.313       .  A
N685        C694   1.352       .  A
N686        N687   1.324       .  A
N686       Mn690   2.211       .  S
N687        C694   1.353       .  A
N688        N689   1.320       .  A
N688       Mn691   2.197       .  S
N689        C693   1.348       .  A
Mn690      Cl692   2.519   1_565  S
C693        C796   1.428       .  S
C694        C790   1.449       .  S
N695        N696   1.330       .  A
N695        N701   1.318       .  A
N695       Mn724   2.250       .  S
N696        C703   1.360       .  A
N697        N699   1.316       .  A
N697        N698   1.322       .  A
N697       Mn713   2.199       .  S
N698        C704   1.350       .  A
N699        N700   1.320       .  A
N699       Mn724   2.212   1_554  S
N700        C704   1.353       .  A
N701        N702   1.320       .  A
N701       Mn713   2.200   1_556  S
N702        C703   1.348       .  A
C703        C840   1.457       .  S
C704        C820   1.437       .  S
N705        N711   1.318       .  A
N705        N706   1.324       .  A
N705       Mn735   2.222       .  S
N706        C714   1.356       .  A
N707        N708   1.322       .  A
N707        N709   1.318       .  A
N707       Mn713   2.204       .  S
N708        C715   1.351       .  A
N709        N710   1.326       .  A
N709       Mn735   2.238       .  S
N710        C715   1.356       .  A
N711        N712   1.316       .  A
N711       Mn713   2.184       .  S
N712        C714   1.344       .  A
Mn713      Cl737   2.534       .  S
C714        C787   1.434       .  S
C715        C800   1.452       .  S
N716        N717   1.326       .  A
N716        N722   1.318       .  A
N716       Mn724   2.239       .  S
N717        C725   1.357       .  A
N718        N720   1.317       .  A
N718        N719   1.316       .  A
N718       Mn736   2.181       .  S
N719        C726   1.344       .  A
N720        N721   1.324       .  A
N720       Mn724   2.221       .  S
N721        C726   1.356       .  A
N722        N723   1.322       .  A
N722       Mn736   2.200       .  S
N723        C725   1.350       .  A
Mn724      Cl737   2.573   1_556  S
C725        C797   1.451       .  S
C726        C786   1.433       .  S
N727        N728   1.320       .  A
N727        N733   1.316       .  A
N727       Mn735   2.211   1_556  S
N728        C738   1.353       .  A
N729        N730   1.319       .  A
N729        N731   1.318       .  A
N729       Mn736   2.194   1_554  S
N730        C739   1.347       .  A
N731        N732   1.331       .  A
N731       Mn735   2.255       .  S
N732        C739   1.361       .  A
N733        N734   1.321       .  A
N733       Mn736   2.197       .  S
N734        C738   1.349       .  A
Mn735      Cl737   2.573       .  S
Mn736      Cl737   2.533   1_556  S
C738        C818   1.436       .  S
C739        C837   1.457       .  S
N740        N741   1.330       .  A
N740        N746   1.318       .  A
N740       Mn769   2.248       .  S
N741        C748   1.360       .  A
N742        N744   1.318       .  A
N742        N743   1.327       .  A
N742       Mn758   2.235       .  S
N743        C749   1.357       .  A
N744        N745   1.325       .  A
N744       Mn769   2.224       .  S
N745        C749   1.354       .  A
N746        N747   1.321       .  A
N746       Mn758   2.205       .  S
N747        C748   1.349       .  A
C748        C823   1.460       .  S
C749        C807   1.461       .  S
N750        N756   1.320       .  A
N750        N751   1.324       .  A
N750       Mn780   2.227       .  S
N751        C759   1.355       .  A
N752        N753   1.324       .  A
N752        N754   1.320       .  A
N752       Mn758   2.222       .  S
N753        C760   1.353       .  A
N754        N755   1.324       .  A
N754       Mn780   2.227       .  S
N755        C760   1.353       .  A
N756        N757   1.317       .  A
N756       Mn758   2.186       .  S
N757        C759   1.344       .  A
Mn758      Cl782   2.544       .  S
C759        C785   1.434       .  S
C760        C791   1.451       .  S
N761        N762   1.324       .  A
N761        N767   1.319       .  A
N761       Mn769   2.225       .  S
N762        C770   1.353       .  A
N763        N765   1.319       .  A
N763        N764   1.317       .  A
N763       Mn781   2.184       .  S
N764        C771   1.344       .  A
N765        N766   1.324       .  A
N765       Mn769   2.225       .  S
N766        C771   1.355       .  A
N767        N768   1.323       .  A
N767       Mn781   2.218       .  S
N768        C770   1.352       .  A
Mn769      Cl782   2.576       .  S
C770        C789   1.449       .  S
C771        C788   1.434       .  S
N772        N773   1.325       .  A
N772        N778   1.317       .  A
N772       Mn780   2.223       .  S
N773        C783   1.354       .  A
N774        N775   1.320       .  A
N774        N776   1.318       .  A
N774       Mn781   2.200       .  S
N775        C784   1.348       .  A
N776        N777   1.331       .  A
N776       Mn780   2.255       .  S
N777        C784   1.361       .  A
N778        N779   1.326       .  A
N778       Mn781   2.233       .  S
N779        C783   1.356       .  A
Mn780      Cl782   2.577       .  S
Mn781      Cl782   2.542       .  S
C783        C805   1.460       .  S
C784        C822   1.461       .  S
C785        C786   1.205       .  T
C787        C788   1.205       .  T
C789        C790   1.214       .  T
C791        C792   1.215       .  T
C797        C798   1.215       .  T
C799        C800   1.215       .  T
C801        C802   1.196       .  T
C803        C804   1.196       .  T
C805        C806   1.220       .  T
C807        C808   1.220       .  T
C809       C1382   1.433       .  S
C809        C810   1.205       .  T
C811       C1660   1.206   1_455  T
C812       C1659   1.206       .  T
C813        C814   1.198   1_556  T
C815        C816   1.198       .  T
C817        C818   1.205       .  T
C819        C820   1.205       .  T
C821        C822   1.221       .  T
C823        C824   1.220       .  T
C827        C828   1.207       .  T
C829       C1678   1.198       .  T
C830       C1677   1.198       .  T
C831       C1348   1.418       .  S
C831        C832   1.197       .  T
C833       C1362   1.451       .  S
C835       C1684   1.215       .  T
C836       C1683   1.215   1_655  T
C837        C838   1.219       .  T
C839        C840   1.218       .  T
C841        C842   1.204       .  T
C843        C844   1.204       .  T
C845       C1393   1.444   1_556  S
C845        C846   1.210       .  T
C847        C848   1.210       .  T
N849        N850   1.321       .  A
N849       N1279   1.320       .  A
N849       Mn878   2.190       .  S
N850        C857   1.345       .  A
N851        N852   1.320       .  A
N851       Mn867   2.193       .  S
N852        C858   1.346   1_545  A
N853        N854   1.329       .  A
N853       Mn878   2.251       .  S
N855       N1273   1.320   1_545  A
N855        N856   1.323       .  A
N856       C1281   1.347   1_545  A
C857       N1280   1.347       .  A
C857       C1265   1.436   1_556  S
C858       C1258   1.451       .  S
N859        N865   1.317       .  A
N859        N860   1.320       .  A
N859       Mn889   2.205   1_556  S
N860        C868   1.348       .  A
N861        N862   1.313       .  A
N862        C869   1.338   1_655  A
N863        N864   1.329       .  A
N863       Mn889   2.223       .  S
N865        N866   1.330       .  A
N865       Mn867   2.242       .  S
N866        C868   1.361       .  A
Mn867      Cl891   2.518       .  S
C868       C1263   1.457       .  S
C869       C1271   1.438       .  S
N870        N871   1.329       .  A
N870       Mn878   2.224       .  S
N872        N874   1.317       .  A
N872        N873   1.330       .  A
N872       Mn890   2.239   1_655  S
N873        C880   1.360       .  A
N874        N875   1.321       .  A
N874       Mn878   2.210   1_554  S
N875        C880   1.350       .  A
N876        N877   1.313       .  A
N877        C879   1.338       .  A
C879       C1270   1.438       .  S
C880       C1262   1.458       .  S
N881        N882   1.328       .  A
N881       Mn889   2.247       .  S
N883        N884   1.323       .  A
N883       N1309   1.319       .  A
N884       C1317   1.347       .  A
N885       N1307   1.319   1_545  A
N885        N886   1.320       .  A
N885       Mn889   2.188       .  S
N886        C893   1.344       .  A
N887        N888   1.320   1_455  A
N887       Mn890   2.192       .  S
N888        C892   1.346   1_655  A
Mn889      Cl891   2.570   1_554  S
C892       C1683   1.451       .  S
C893       N1308   1.347   1_545  A
C893       C1268   1.435   1_554  S
N894        N895   1.320       .  A
N894       Mn923   2.187       .  S
N895        C902   1.346   1_545  A
N896       N1322   1.316       .  A
N896        N897   1.321       .  A
N896       Mn912   2.181       .  S
N897       C1327   1.346       .  A
N898       N1320   1.316   1_545  A
N898        N899   1.324       .  A
N899        C903   1.349       .  A
N900        N901   1.328       .  A
N900       Mn912   2.249       .  S
C902       C1260   1.451   1_565  S
C903       N1321   1.346   1_545  A
C903       C1249   1.442       .  S
N904        N910   1.317       .  A
N904        N905   1.331       .  A
N905        C913   1.362       .  A
N906        N907   1.324       .  A
N906       Mn912   2.197       .  S
N908        N909   1.308       .  A
N908       Mn934   2.156       .  S
N909        C914   1.330       .  A
N910        N911   1.320       .  A
N910       Mn912   2.196       .  S
N911        C913   1.348       .  A
C913       C1245   1.461       .  S
C914       C1253   1.419       .  S
N915        N921   1.320       .  A
N915       Mn923   2.154       .  S
N916        C924   1.330   1_655  A
N917        N919   1.317       .  A
N917        N918   1.319       .  A
N917       Mn935   2.192       .  S
N918        C925   1.346       .  A
N919        N920   1.332       .  A
N919       Mn923   2.260       .  S
N920        C925   1.363       .  A
N921        N922   1.324       .  A
N921       Mn935   2.197       .  S
Mn923      Cl936   2.496       .  S
C925       C1248   1.459       .  S
N926        N927   1.324       .  A
N926       N1356   1.316       .  A
N926       Mn934   2.203       .  S
N927       C1361   1.349       .  A
N928        N929   1.328       .  A
N928       N1354   1.316   1_545  A
N928       Mn935   2.248       .  S
N930       N1352   1.316       .  A
N930       Mn934   2.186       .  S
N931        C938   1.346   1_655  A
N932       N1350   1.316   1_545  A
N932        N933   1.321       .  A
N932       Mn935   2.179       .  S
N933        C937   1.345       .  A
Mn934     Cl1360   2.493       .  S
Mn935      Cl936   2.561       .  S
Cl936     Mn1358   2.493   1_545  S
C937       N1351   1.349   1_545  A
C937       C1252   1.440       .  S
N939        N940   1.327       .  A
N939        N945   1.315       .  A
N939       Mn968   2.224       .  S
N940        C947   1.358       .  A
N941        N943   1.318   1_556  A
N941        N942   1.325       .  A
N941       Mn957   2.218       .  S
N942        C948   1.357       .  A
N943        N944   1.308       .  A
N943       Mn968   2.142       .  S
N944        C948   1.331   1_554  A
N945        N946   1.312       .  A
N945       Mn957   2.167   1_554  S
N946        C947   1.342       .  A
C947       C1243   1.432       .  S
C948       C1240   1.419   1_556  S
N949        N950   1.313       .  A
N949       Mn979   2.156       .  S
N951        N952   1.325       .  A
N951       Mn957   2.202       .  S
N953        N954   1.320       .  A
N953       Mn979   2.190       .  S
N954        C959   1.347   1_655  A
N955        N956   1.327       .  A
N955       Mn957   2.233       .  S
N956        C958   1.360       .  A
C959       C1272   1.443   1_556  S
N960        N961   1.321       .  A
N960       Mn968   2.191       .  S
N962        N963   1.327       .  A
N962       Mn980   2.234       .  S
N963        C970   1.360       .  A
N964        N965   1.313       .  A
N964       Mn968   2.157       .  S
N966        N967   1.325       .  A
N966       Mn980   2.202       .  S
N967        C969   1.350       .  A
C970       C1236   1.433       .  S
N971        N972   1.308       .  A
N971        N977   1.318   1_556  A
N971       Mn979   2.141       .  S
N972        C982   1.330   1_556  A
N973        N974   1.312       .  A
N973        N975   1.315       .  A
N973       Mn980   2.165   1_556  S
N974        C983   1.342       .  A
N975        N976   1.327       .  A
N975       Mn979   2.223       .  S
N976        C983   1.357       .  A
N977        N978   1.325       .  A
N977       Mn980   2.219       .  S
N978        C982   1.357       .  A
Mn979      Cl981   2.497   1_556  S
Mn980      Cl981   2.555       .  S
C982       C1238   1.419       .  S
C983       C1241   1.431       .  S
N984        N985   1.326       .  A
N984        N990   1.313       .  A
N984      Mn1013   2.226   1_455  S
N986        N988   1.316       .  A
N986        N987   1.327       .  A
N986      Mn1002   2.227       .  S
N987        C993   1.361       .  A
N988        N989   1.303       .  A
N988      Mn1013   2.115       .  S
N989        C993   1.326       .  A
N990      Mn1002   2.122   1_455  S
N991        C992   1.330       .  A
C992       C1256   1.409       .  S
C993       C1225   1.410       .  S
N994        N995   1.319       .  A
N994      Mn1024   2.180       .  S
N996        N997   1.324       .  A
N996        N998   1.313       .  A
N997       C1004   1.350       .  A
N998        N999   1.328       .  A
N998      Mn1024   2.229       .  S
N999       C1004   1.358       .  A
N1000      N1001   1.322       .  A
N1000     Mn1002   2.201       .  S
N1001      C1003   1.352       .  A
Mn1002    Cl1026   2.538       .  S
C1003      C1234   1.435       .  S
C1004      C1232   1.460       .  S
N1005      N1006   1.328       .  A
N1005      N1011   1.313       .  A
N1005     Mn1013   2.226       .  S
N1006      C1014   1.357       .  A
N1007      N1008   1.322       .  A
N1008      C1015   1.352       .  A
N1009      N1010   1.319       .  A
N1009     Mn1013   2.180   1_455  S
N1011      N1012   1.324       .  A
N1011     Mn1025   2.205   1_655  S
N1012      C1014   1.351       .  A
Mn1013    Cl1026   2.507       .  S
C1014      C1230   1.459       .  S
C1015      C1235   1.436       .  S
N1016      N1017   1.303       .  A
N1016      N1022   1.316       .  A
N1016     Mn1024   2.116       .  S
N1017      C1027   1.326       .  A
N1018      N1019   1.303       .  A
N1018     Mn1025   2.122   1_655  S
N1019      C1028   1.330       .  A
N1020      N1021   1.327       .  A
N1020     Mn1024   2.227       .  S
N1022      N1023   1.327       .  A
N1023      C1027   1.361       .  A
Mn1025    Cl1026   2.536   1_455  S
C1027      C1227   1.410       .  S
C1028      C1254   1.410       .  S
N1029      N1030   1.323       .  A
N1029      N1035   1.314       .  A
N1029     Mn1058   2.205       .  S
N1030      C1037   1.350       .  A
N1031      N1457   1.318       .  A
N1031      N1032   1.320       .  A
N1031     Mn1471   2.198       .  S
N1032      C1038   1.348       .  A
N1033      N1455   1.318   1_545  A
N1033      N1034   1.318       .  A
N1033     Mn1058   2.177       .  S
N1034      C1462   1.345   1_545  A
N1035      N1036   1.326       .  A
N1035     Mn1047   2.215   1_545  S
N1036      C1037   1.355       .  A
C1037      C1223   1.452       .  S
C1038      N1458   1.345       .  A
C1038      C1219   1.428       .  S
N1039      N1045   1.314   1_556  A
N1039      N1040   1.305       .  A
N1039     Mn1069   2.125       .  S
N1040      C1048   1.331   1_556  A
N1041      N1042   1.309       .  A
N1041      N1467   1.316   1_544  A
N1041     Mn1047   2.153   1_545  S
N1042      C1049   1.337   1_554  A
N1043      N1465   1.316   1_556  A
N1043      N1044   1.328       .  A
N1043     Mn1069   2.223       .  S
N1044      C1473   1.359       .  A
N1045      N1046   1.327       .  A
N1045     Mn1471   2.231       .  S
N1046      C1048   1.362       .  A
Mn1047     N1455   2.198       .  S
Mn1047     N1469   2.231       .  S
Mn1047    Cl1071   2.530   1_565  S
C1048      C1239   1.414       .  S
C1049      N1468   1.359   1_545  A
C1049      C1267   1.426       .  S
N1050      N1051   1.328       .  A
N1050      N1056   1.315   1_545  A
N1050     Mn1058   2.227       .  S
N1051      C1483   1.360   1_545  A
N1052      N1054   1.314   1_556  A
N1052      N1053   1.327       .  A
N1052     Mn1070   2.233       .  S
N1053      C1060   1.363       .  A
N1054      N1055   1.304       .  A
N1054     Mn1058   2.122       .  S
N1055      C1060   1.330   1_554  A
N1056      N1481   1.309   1_554  A
N1056     Mn1070   2.151   1_564  S
N1057      N1480   1.309   1_556  A
N1057      C1059   1.336   1_556  A
Mn1058    Cl1071   2.523       .  S
C1059      N1475   1.360       .  A
C1059      C1266   1.427       .  S
C1060      C1237   1.414       .  S
N1061      N1062   1.318       .  A
N1061      N1491   1.317       .  A
N1061     Mn1069   2.178       .  S
N1062      C1496   1.345       .  A
N1063      N1064   1.326       .  A
N1063      N1065   1.314       .  A
N1063     Mn1494   2.217       .  S
N1064      C1073   1.356       .  A
N1065      N1066   1.322       .  A
N1065     Mn1069   2.201       .  S
N1066      C1073   1.349       .  A
N1067      N1485   1.317       .  A
N1067      N1068   1.320       .  A
N1067     Mn1070   2.196       .  S
N1068      C1072   1.348       .  A
Mn1069    Cl1495   2.523   1_556  S
Mn1070     N1487   2.217   1_545  S
Mn1070    Cl1071   2.529   1_556  S
Cl1071    Mn1493   2.523   1_544  S
C1072      N1486   1.345       .  A
C1072      C1218   1.428       .  S
C1073      C1222   1.451       .  S
N1074      N1075   1.325       .  A
N1074      N1080   1.313       .  A
N1074     Mn1103   2.215       .  S
N1075      C1082   1.354       .  A
N1076      N1502   1.319       .  A
N1076      N1077   1.320       .  A
N1076     Mn1092   2.198       .  S
N1077      C1083   1.348       .  A
N1078      N1500   1.319   1_545  A
N1078      N1079   1.318       .  A
N1078     Mn1103   2.181       .  S
N1079      C1507   1.345   1_545  A
N1080      N1081   1.323       .  A
N1080     Mn1516   2.201   1_545  S
N1081      C1082   1.352       .  A
C1082      C1216   1.451       .  S
C1083      N1503   1.345       .  A
C1083      C1217   1.428       .  S
N1084      N1090   1.315       .  A
N1084      N1085   1.304       .  A
N1084     Mn1114   2.113       .  S
N1085      C1093   1.327       .  A
N1086      N1511   1.309       .  A
N1086      N1088   1.316       .  A
N1086     Mn1092   2.148       .  S
N1087      N1510   1.309       .  A
N1087      C1094   1.335       .  A
N1088      N1089   1.329       .  A
N1088     Mn1114   2.238       .  S
N1089      C1518   1.361       .  A
N1090      N1091   1.327       .  A
N1090     Mn1092   2.231       .  S
N1091      C1093   1.361       .  A
Mn1092     N1504   2.201       .  S
Mn1092    Cl1116   2.530       .  S
C1093      C1228   1.412       .  S
C1094      N1513   1.361   1_545  A
C1094      C1251   1.431       .  S
N1095      N1096   1.330       .  A
N1095      N1525   1.316   1_545  A
N1095     Mn1103   2.243       .  S
N1096      C1528   1.362   1_545  A
N1097      N1099   1.315       .  A
N1097      N1098   1.327       .  A
N1097     Mn1115   2.232       .  S
N1098      C1105   1.361       .  A
N1099      N1100   1.303       .  A
N1099     Mn1103   2.112       .  S
N1100      C1105   1.327       .  A
N1101      N1519   1.316       .  A
N1101      N1102   1.309       .  A
N1101     Mn1539   2.145       .  S
N1102      C1104   1.334       .  A
Mn1103    Cl1540   2.518       .  S
C1104      N1520   1.362       .  A
C1104      C1250   1.432       .  S
C1105      C1226   1.411       .  S
N1106      N1107   1.318       .  A
N1106      N1536   1.319       .  A
N1106     Mn1114   2.180       .  S
N1107      C1541   1.345       .  A
N1108      N1109   1.323       .  A
N1108      N1110   1.313       .  A
N1108     Mn1539   2.201       .  S
N1109      C1118   1.352       .  A
N1110      N1111   1.324       .  A
N1110     Mn1114   2.211       .  S
N1111      C1118   1.353       .  A
N1112      N1530   1.319       .  A
N1112      N1113   1.320       .  A
N1112     Mn1115   2.197       .  S
N1113      C1117   1.348       .  A
Mn1114    Cl1116   2.519       .  S
Mn1115     N1525   2.145   1_545  S
Mn1115     N1532   2.201   1_545  S
Mn1115    Cl1540   2.529       .  S
Cl1116    Mn1527   2.518       .  S
Cl1116    Mn1539   2.529       .  S
C1117      N1531   1.345       .  A
C1117      C1220   1.428       .  S
C1118      C1214   1.449       .  S
N1119      N1120   1.330       .  A
N1119      N1125   1.318       .  A
N1119     Mn1148   2.250       .  S
N1120      C1127   1.360       .  A
N1121      N1123   1.316       .  A
N1121      N1122   1.322       .  A
N1121     Mn1137   2.199       .  S
N1122      C1128   1.350       .  A
N1123      N1124   1.320       .  A
N1123     Mn1148   2.212   1_554  S
N1124      C1128   1.353       .  A
N1125      N1126   1.320       .  A
N1125     Mn1137   2.200   1_556  S
N1126      C1127   1.348       .  A
C1127      C1264   1.457       .  S
C1128      C1244   1.437       .  S
N1129      N1135   1.318       .  A
N1129      N1130   1.324       .  A
N1129     Mn1159   2.222       .  S
N1130      C1138   1.356       .  A
N1131      N1132   1.322       .  A
N1131      N1133   1.318       .  A
N1131     Mn1137   2.204       .  S
N1132      C1139   1.351       .  A
N1133      N1134   1.326       .  A
N1133     Mn1159   2.238       .  S
N1134      C1139   1.356       .  A
N1135      N1136   1.316       .  A
N1135     Mn1137   2.184       .  S
N1136      C1138   1.344       .  A
Mn1137    Cl1161   2.534       .  S
C1138      C1211   1.434       .  S
C1139      C1224   1.452       .  S
N1140      N1141   1.326       .  A
N1140      N1146   1.318       .  A
N1140     Mn1148   2.239       .  S
N1141      C1149   1.357       .  A
N1142      N1144   1.317       .  A
N1142      N1143   1.316       .  A
N1142     Mn1160   2.181       .  S
N1143      C1150   1.344       .  A
N1144      N1145   1.324       .  A
N1144     Mn1148   2.221       .  S
N1145      C1150   1.356       .  A
N1146      N1147   1.322       .  A
N1146     Mn1160   2.200       .  S
N1147      C1149   1.350       .  A
Mn1148    Cl1161   2.573   1_556  S
C1149      C1221   1.451       .  S
C1150      C1210   1.433       .  S
N1151      N1152   1.320       .  A
N1151      N1157   1.316       .  A
N1151     Mn1159   2.211   1_556  S
N1152      C1162   1.353       .  A
N1153      N1154   1.319       .  A
N1153      N1155   1.318       .  A
N1153     Mn1160   2.194   1_554  S
N1154      C1163   1.347       .  A
N1155      N1156   1.331       .  A
N1155     Mn1159   2.255       .  S
N1156      C1163   1.361       .  A
N1157      N1158   1.321       .  A
N1157     Mn1160   2.197       .  S
N1158      C1162   1.349       .  A
Mn1159    Cl1161   2.573       .  S
Mn1160    Cl1161   2.533   1_556  S
C1162      C1242   1.436       .  S
C1163      C1261   1.457       .  S
N1164      N1165   1.330       .  A
N1164      N1170   1.318       .  A
N1164     Mn1193   2.248       .  S
N1165      C1172   1.360       .  A
N1166      N1168   1.318       .  A
N1166      N1167   1.327       .  A
N1166     Mn1182   2.235       .  S
N1167      C1173   1.357       .  A
N1168      N1169   1.325       .  A
N1168     Mn1193   2.224       .  S
N1169      C1173   1.354       .  A
N1170      N1171   1.321       .  A
N1170     Mn1182   2.205       .  S
N1171      C1172   1.349       .  A
C1172      C1247   1.460       .  S
C1173      C1231   1.461       .  S
N1174      N1180   1.320       .  A
N1174      N1175   1.324       .  A
N1174     Mn1204   2.227       .  S
N1175      C1183   1.355       .  A
N1176      N1177   1.324       .  A
N1176      N1178   1.320       .  A
N1176     Mn1182   2.222       .  S
N1177      C1184   1.353       .  A
N1178      N1179   1.324       .  A
N1178     Mn1204   2.227       .  S
N1179      C1184   1.353       .  A
N1180      N1181   1.317       .  A
N1180     Mn1182   2.186       .  S
N1181      C1183   1.344       .  A
Mn1182    Cl1206   2.544       .  S
C1183      C1209   1.434       .  S
C1184      C1215   1.451       .  S
N1185      N1186   1.324       .  A
N1185      N1191   1.319       .  A
N1185     Mn1193   2.225       .  S
N1186      C1194   1.353       .  A
N1187      N1189   1.319       .  A
N1187      N1188   1.317       .  A
N1187     Mn1205   2.184       .  S
N1188      C1195   1.344       .  A
N1189      N1190   1.324       .  A
N1189     Mn1193   2.225       .  S
N1190      C1195   1.355       .  A
N1191      N1192   1.323       .  A
N1191     Mn1205   2.218       .  S
N1192      C1194   1.352       .  A
Mn1193    Cl1206   2.576       .  S
C1194      C1213   1.449       .  S
C1195      C1212   1.434       .  S
N1196      N1197   1.325       .  A
N1196      N1202   1.317       .  A
N1196     Mn1204   2.223       .  S
N1197      C1207   1.354       .  A
N1198      N1199   1.320       .  A
N1198      N1200   1.318       .  A
N1198     Mn1205   2.200       .  S
N1199      C1208   1.348       .  A
N1200      N1201   1.331       .  A
N1200     Mn1204   2.255       .  S
N1201      C1208   1.361       .  A
N1202      N1203   1.326       .  A
N1202     Mn1205   2.233       .  S
N1203      C1207   1.356       .  A
Mn1204    Cl1206   2.577       .  S
Mn1205    Cl1206   2.542       .  S
C1207      C1229   1.460       .  S
C1208      C1246   1.461       .  S
C1209      C1210   1.205       .  T
C1211      C1212   1.205       .  T
C1213      C1214   1.214       .  T
C1215      C1216   1.215       .  T
C1217      C1642   1.202       .  T
C1218      C1641   1.202   1_545  T
C1219      C1644   1.202       .  T
C1220      C1643   1.202   1_545  T
C1221      C1222   1.215       .  T
C1223      C1224   1.215       .  T
C1225      C1226   1.196       .  T
C1227      C1228   1.196       .  T
C1229      C1230   1.220       .  T
C1231      C1232   1.220       .  T
C1233      C1234   1.205   1_455  T
C1237      C1238   1.198   1_556  T
C1239      C1240   1.198       .  T
C1241      C1242   1.205       .  T
C1243      C1244   1.205       .  T
C1245      C1246   1.221       .  T
C1247      C1248   1.220       .  T
C1249      C1674   1.208   1_545  T
C1250      C1673   1.208       .  T
C1251      C1252   1.207       .  T
C1255      C1256   1.197       .  T
C1257      C1682   1.215       .  T
C1258      C1681   1.215   1_565  T
C1259      C1316   1.451       .  S
C1261      C1262   1.219       .  T
C1263      C1264   1.218       .  T
C1265      C1266   1.204       .  T
C1267      C1268   1.204       .  T
C1269      C1270   1.210       .  T
C1271      C1272   1.210       .  T
N1273      N1274   1.321       .  A
N1273     Mn1302   2.190       .  S
N1274      C1281   1.345       .  A
N1275      N1276   1.320       .  A
N1275     Mn1291   2.193       .  S
N1276      C1282   1.346       .  A
N1277      N1278   1.329       .  A
N1277     Mn1302   2.251       .  S
N1279      N1280   1.323       .  A
C1281      C1689   1.436   1_556  S
C1282      C1682   1.451       .  S
N1283      N1289   1.317       .  A
N1283      N1284   1.320       .  A
N1283     Mn1313   2.205   1_556  S
N1284      C1292   1.348       .  A
N1285      N1286   1.313       .  A
N1286      C1293   1.338   1_655  A
N1287      N1288   1.329       .  A
N1287     Mn1313   2.223       .  S
N1289      N1290   1.330       .  A
N1289     Mn1291   2.242       .  S
N1290      C1292   1.361       .  A
Mn1291    Cl1315   2.518       .  S
C1292      C1687   1.456       .  S
C1293      C1695   1.438       .  S
N1294      N1295   1.329       .  A
N1294     Mn1302   2.224       .  S
N1296      N1298   1.317       .  A
N1296      N1297   1.329       .  A
N1296     Mn1314   2.239   1_655  S
N1297      C1304   1.360       .  A
N1298      N1299   1.321       .  A
N1298     Mn1302   2.210   1_554  S
N1299      C1304   1.350       .  A
N1300      N1301   1.313       .  A
N1301      C1303   1.338       .  A
C1303      C1694   1.438       .  S
C1304      C1686   1.457       .  S
N1305      N1306   1.328       .  A
N1305     Mn1313   2.247       .  S
N1307      N1308   1.323       .  A
N1309      N1310   1.320       .  A
N1309     Mn1313   2.188       .  S
N1310      C1317   1.344       .  A
N1311      N1312   1.319   1_455  A
N1311     Mn1314   2.192       .  S
N1312      C1316   1.346   1_665  A
Mn1313    Cl1315   2.570   1_554  S
C1317      C1692   1.435   1_554  S
N1318      N1319   1.320       .  A
N1318     Mn1347   2.187       .  S
N1319      C1326   1.346       .  A
N1320      N1321   1.321       .  A
N1320     Mn1336   2.181       .  S
N1322      N1323   1.324       .  A
N1323      C1327   1.349       .  A
N1324      N1325   1.328       .  A
N1324     Mn1336   2.249       .  S
C1326      C1684   1.451       .  S
C1327      C1673   1.442       .  S
N1328      N1334   1.317       .  A
N1328      N1329   1.331       .  A
N1329      C1337   1.362       .  A
N1330      N1331   1.324       .  A
N1330     Mn1336   2.197       .  S
N1332      N1333   1.308       .  A
N1332     Mn1358   2.156       .  S
N1333      C1338   1.330       .  A
N1334      N1335   1.320       .  A
N1334     Mn1336   2.196       .  S
N1335      C1337   1.348       .  A
C1337      C1669   1.461       .  S
C1338      C1677   1.419       .  S
N1339      N1345   1.320       .  A
N1339     Mn1347   2.154       .  S
N1340      C1348   1.330   1_655  A
N1341      N1343   1.317       .  A
N1341      N1342   1.319       .  A
N1341     Mn1359   2.192       .  S
N1342      C1349   1.346       .  A
N1343      N1344   1.332       .  A
N1343     Mn1347   2.260       .  S
N1344      C1349   1.363       .  A
N1345      N1346   1.324       .  A
N1345     Mn1359   2.197       .  S
Mn1347    Cl1360   2.496       .  S
C1349      C1672   1.459       .  S
N1350      N1351   1.324       .  A
N1350     Mn1358   2.202       .  S
N1352      N1353   1.328       .  A
N1352     Mn1359   2.248       .  S
N1354     Mn1358   2.186       .  S
N1355      C1362   1.346   1_665  A
N1356      N1357   1.321       .  A
N1356     Mn1359   2.179       .  S
N1357      C1361   1.345       .  A
Mn1359    Cl1360   2.561       .  S
C1361      C1676   1.440       .  S
N1363      N1364   1.327       .  A
N1363      N1369   1.315       .  A
N1363     Mn1392   2.224       .  S
N1364      C1371   1.358       .  A
N1365      N1367   1.318   1_556  A
N1365      N1366   1.325       .  A
N1365     Mn1381   2.218       .  S
N1366      C1372   1.357       .  A
N1367      N1368   1.308       .  A
N1367     Mn1392   2.142       .  S
N1368      C1372   1.331   1_554  A
N1369      N1370   1.312       .  A
N1369     Mn1381   2.167   1_554  S
N1370      C1371   1.342       .  A
C1371      C1667   1.432       .  S
C1372      C1664   1.419   1_556  S
N1373      N1374   1.313       .  A
N1373     Mn1403   2.156       .  S
N1375      N1376   1.325       .  A
N1375     Mn1381   2.202       .  S
N1377      N1378   1.320       .  A
N1377     Mn1403   2.189       .  S
N1378      C1383   1.347   1_655  A
N1379      N1380   1.327       .  A
N1379     Mn1381   2.233       .  S
N1380      C1382   1.360       .  A
C1383      C1696   1.443   1_556  S
N1384      N1385   1.321       .  A
N1384     Mn1392   2.191       .  S
N1386      N1387   1.327       .  A
N1386     Mn1404   2.233       .  S
N1387      C1394   1.360       .  A
N1388      N1389   1.313       .  A
N1388     Mn1392   2.157       .  S
N1390      N1391   1.325       .  A
N1390     Mn1404   2.202       .  S
N1391      C1393   1.350       .  A
C1394      C1660   1.433       .  S
N1395      N1396   1.308       .  A
N1395      N1401   1.318   1_556  A
N1395     Mn1403   2.141       .  S
N1396      C1406   1.330   1_556  A
N1397      N1398   1.312       .  A
N1397      N1399   1.315       .  A
N1397     Mn1404   2.165   1_556  S
N1398      C1407   1.342       .  A
N1399      N1400   1.327       .  A
N1399     Mn1403   2.223       .  S
N1400      C1407   1.358       .  A
N1401      N1402   1.325       .  A
N1401     Mn1404   2.219       .  S
N1402      C1406   1.357       .  A
Mn1403    Cl1405   2.497   1_556  S
Mn1404    Cl1405   2.555       .  S
C1406      C1662   1.419       .  S
C1407      C1665   1.431       .  S
N1408      N1409   1.326       .  A
N1408      N1414   1.313       .  A
N1408     Mn1437   2.226   1_455  S
N1410      N1412   1.316       .  A
N1410      N1411   1.327       .  A
N1410     Mn1426   2.227       .  S
N1411      C1417   1.361       .  A
N1412      N1413   1.303       .  A
N1412     Mn1437   2.115       .  S
N1413      C1417   1.326       .  A
N1414     Mn1426   2.122   1_455  S
N1415      C1416   1.330       .  A
C1416      C1680   1.409       .  S
C1417      C1649   1.410       .  S
N1418      N1419   1.319       .  A
N1418     Mn1448   2.180       .  S
N1420      N1421   1.324       .  A
N1420      N1422   1.313       .  A
N1421      C1428   1.350       .  A
N1422      N1423   1.328       .  A
N1422     Mn1448   2.229       .  S
N1423      C1428   1.358       .  A
N1424      N1425   1.322       .  A
N1424     Mn1426   2.201       .  S
N1425      C1427   1.352       .  A
Mn1426    Cl1450   2.538       .  S
C1427      C1658   1.435       .  S
C1428      C1656   1.460       .  S
N1429      N1430   1.328       .  A
N1429      N1435   1.313       .  A
N1429     Mn1437   2.226       .  S
N1430      C1438   1.357       .  A
N1431      N1432   1.322       .  A
N1432      C1439   1.352       .  A
N1433      N1434   1.319       .  A
N1433     Mn1437   2.180   1_455  S
N1435      N1436   1.324       .  A
N1435     Mn1449   2.205   1_655  S
N1436      C1438   1.351       .  A
Mn1437    Cl1450   2.507       .  S
C1438      C1654   1.459       .  S
C1439      C1659   1.436       .  S
N1440      N1441   1.303       .  A
N1440      N1446   1.316       .  A
N1440     Mn1448   2.116       .  S
N1441      C1451   1.326       .  A
N1442      N1443   1.303       .  A
N1442     Mn1449   2.122   1_655  S
N1443      C1452   1.330       .  A
N1444      N1445   1.327       .  A
N1444     Mn1448   2.227       .  S
N1446      N1447   1.327       .  A
N1447      C1451   1.361       .  A
Mn1449    Cl1450   2.536   1_455  S
C1451      C1651   1.410       .  S
C1452      C1678   1.410       .  S
N1453      N1454   1.323       .  A
N1453      N1459   1.314       .  A
N1453     Mn1482   2.205       .  S
N1454      C1461   1.350       .  A
N1455      N1456   1.320       .  A
N1456      C1462   1.348       .  A
N1457      N1458   1.318       .  A
N1457     Mn1482   2.178       .  S
N1459      N1460   1.326       .  A
N1459     Mn1471   2.215       .  S
N1460      C1461   1.355       .  A
C1461      C1647   1.452       .  S
C1462      C1643   1.428       .  S
N1463      N1469   1.314   1_556  A
N1463      N1464   1.305       .  A
N1463     Mn1493   2.125       .  S
N1464      C1472   1.331   1_556  A
N1465      N1466   1.309       .  A
N1465     Mn1471   2.153       .  S
N1466      C1473   1.337   1_554  A
N1467      N1468   1.328       .  A
N1467     Mn1493   2.223       .  S
N1469      N1470   1.327       .  A
N1470      C1472   1.362       .  A
Mn1471    Cl1495   2.530       .  S
C1472      C1663   1.414       .  S
C1473      C1691   1.426       .  S
N1474      N1475   1.328       .  A
N1474      N1480   1.315       .  A
N1474     Mn1482   2.227       .  S
N1476      N1478   1.314   1_556  A
N1476      N1477   1.327       .  A
N1476     Mn1494   2.233       .  S
N1477      C1484   1.363       .  A
N1478      N1479   1.304       .  A
N1478     Mn1482   2.122       .  S
N1479      C1484   1.330   1_554  A
N1480     Mn1494   2.151   1_554  S
N1481      C1483   1.336   1_556  A
Mn1482    Cl1495   2.523       .  S
C1483      C1690   1.427       .  S
C1484      C1661   1.414       .  S
N1485      N1486   1.318       .  A
N1485     Mn1493   2.178   1_545  S
N1487      N1488   1.326       .  A
N1487      N1489   1.314       .  A
N1488      C1497   1.356       .  A
N1489      N1490   1.322       .  A
N1489     Mn1493   2.201       .  S
N1490      C1497   1.349       .  A
N1491      N1492   1.320       .  A
N1491     Mn1494   2.196       .  S
N1492      C1496   1.348       .  A
Mn1494    Cl1495   2.530   1_556  S
C1496      C1642   1.428       .  S
C1497      C1646   1.451       .  S
N1498      N1499   1.325       .  A
N1498      N1504   1.313       .  A
N1498     Mn1527   2.215       .  S
N1499      C1506   1.354       .  A
N1500      N1501   1.320       .  A
N1500     Mn1516   2.198       .  S
N1501      C1507   1.348       .  A
N1502      N1503   1.318       .  A
N1502     Mn1527   2.181       .  S
N1504      N1505   1.323       .  A
N1505      C1506   1.352       .  A
C1506      C1640   1.451       .  S
C1507      C1641   1.428       .  S
N1508      N1514   1.315       .  A
N1508      N1509   1.304       .  A
N1508     Mn1538   2.113       .  S
N1509      C1517   1.327       .  A
N1510      N1512   1.316   1_545  A
N1510     Mn1516   2.148   1_545  S
N1511      C1518   1.335       .  A
N1512      N1513   1.329       .  A
N1512     Mn1538   2.238       .  S
N1514      N1515   1.327       .  A
N1514     Mn1516   2.231       .  S
N1515      C1517   1.361       .  A
Mn1516    Cl1540   2.530   1_565  S
C1517      C1652   1.412       .  S
C1518      C1675   1.431       .  S
N1519      N1520   1.330       .  A
N1519     Mn1527   2.243       .  S
N1521      N1523   1.315       .  A
N1521      N1522   1.327       .  A
N1521     Mn1539   2.232       .  S
N1522      C1529   1.361       .  A
N1523      N1524   1.303       .  A
N1523     Mn1527   2.112       .  S
N1524      C1529   1.327       .  A
N1525      N1526   1.309       .  A
N1526      C1528   1.334       .  A
C1528      C1674   1.432       .  S
C1529      C1650   1.411       .  S
N1530      N1531   1.318       .  A
N1530     Mn1538   2.180   1_545  S
N1532      N1533   1.323       .  A
N1532      N1534   1.313       .  A
N1533      C1542   1.352       .  A
N1534      N1535   1.324       .  A
N1534     Mn1538   2.211       .  S
N1535      C1542   1.353       .  A
N1536      N1537   1.320       .  A
N1536     Mn1539   2.197       .  S
N1537      C1541   1.348       .  A
Mn1538    Cl1540   2.518   1_565  S
C1541      C1644   1.428       .  S
C1542      C1638   1.449       .  S
N1543      N1544   1.330       .  A
N1543      N1549   1.318       .  A
N1543     Mn1572   2.250       .  S
N1544      C1551   1.360       .  A
N1545      N1547   1.316       .  A
N1545      N1546   1.322       .  A
N1545     Mn1561   2.199       .  S
N1546      C1552   1.350       .  A
N1547      N1548   1.320       .  A
N1547     Mn1572   2.212   1_554  S
N1548      C1552   1.353       .  A
N1549      N1550   1.320       .  A
N1549     Mn1561   2.200   1_556  S
N1550      C1551   1.348       .  A
C1551      C1688   1.457       .  S
C1552      C1668   1.437       .  S
N1553      N1559   1.318       .  A
N1553      N1554   1.324       .  A
N1553     Mn1583   2.222       .  S
N1554      C1562   1.356       .  A
N1555      N1556   1.322       .  A
N1555      N1557   1.318       .  A
N1555     Mn1561   2.204       .  S
N1556      C1563   1.351       .  A
N1557      N1558   1.326       .  A
N1557     Mn1583   2.238       .  S
N1558      C1563   1.356       .  A
N1559      N1560   1.316       .  A
N1559     Mn1561   2.184       .  S
N1560      C1562   1.344       .  A
Mn1561    Cl1585   2.534       .  S
C1562      C1635   1.434       .  S
C1563      C1648   1.452       .  S
N1564      N1565   1.326       .  A
N1564      N1570   1.318       .  A
N1564     Mn1572   2.238       .  S
N1565      C1573   1.357       .  A
N1566      N1568   1.317       .  A
N1566      N1567   1.316       .  A
N1566     Mn1584   2.180       .  S
N1567      C1574   1.344       .  A
N1568      N1569   1.324       .  A
N1568     Mn1572   2.221       .  S
N1569      C1574   1.356       .  A
N1570      N1571   1.322       .  A
N1570     Mn1584   2.200       .  S
N1571      C1573   1.350       .  A
Mn1572    Cl1585   2.573   1_556  S
C1573      C1645   1.451       .  S
C1574      C1634   1.433       .  S
N1575      N1576   1.320       .  A
N1575      N1581   1.316       .  A
N1575     Mn1583   2.211   1_556  S
N1576      C1586   1.353       .  A
N1577      N1578   1.319       .  A
N1577      N1579   1.318       .  A
N1577     Mn1584   2.194   1_554  S
N1578      C1587   1.347       .  A
N1579      N1580   1.331       .  A
N1579     Mn1583   2.255       .  S
N1580      C1587   1.361       .  A
N1581      N1582   1.321       .  A
N1581     Mn1584   2.197       .  S
N1582      C1586   1.350       .  A
Mn1583    Cl1585   2.573       .  S
Mn1584    Cl1585   2.533   1_556  S
C1586      C1666   1.436       .  S
C1587      C1685   1.457       .  S
N1588      N1589   1.330       .  A
N1588      N1594   1.318       .  A
N1588     Mn1617   2.248       .  S
N1589      C1596   1.360       .  A
N1590      N1592   1.318       .  A
N1590      N1591   1.327       .  A
N1590     Mn1606   2.235       .  S
N1591      C1597   1.357       .  A
N1592      N1593   1.325       .  A
N1592     Mn1617   2.224       .  S
N1593      C1597   1.354       .  A
N1594      N1595   1.321       .  A
N1594     Mn1606   2.205       .  S
N1595      C1596   1.349       .  A
C1596      C1671   1.460       .  S
C1597      C1655   1.461       .  S
N1598      N1604   1.320       .  A
N1598      N1599   1.324       .  A
N1598     Mn1628   2.227       .  S
N1599      C1607   1.355       .  A
N1600      N1601   1.324       .  A
N1600      N1602   1.320       .  A
N1600     Mn1606   2.222       .  S
N1601      C1608   1.353       .  A
N1602      N1603   1.324       .  A
N1602     Mn1628   2.227       .  S
N1603      C1608   1.353       .  A
N1604      N1605   1.317       .  A
N1604     Mn1606   2.186       .  S
N1605      C1607   1.344       .  A
Mn1606    Cl1630   2.544       .  S
C1607      C1633   1.434       .  S
C1608      C1639   1.451       .  S
N1609      N1610   1.324       .  A
N1609      N1615   1.319       .  A
N1609     Mn1617   2.225       .  S
N1610      C1618   1.353       .  A
N1611      N1613   1.319       .  A
N1611      N1612   1.317       .  A
N1611     Mn1629   2.184       .  S
N1612      C1619   1.344       .  A
N1613      N1614   1.324       .  A
N1613     Mn1617   2.225       .  S
N1614      C1619   1.355       .  A
N1615      N1616   1.323       .  A
N1615     Mn1629   2.218       .  S
N1616      C1618   1.352       .  A
Mn1617    Cl1630   2.576       .  S
C1618      C1637   1.449       .  S
C1619      C1636   1.434       .  S
N1620      N1621   1.325       .  A
N1620      N1626   1.317       .  A
N1620     Mn1628   2.223       .  S
N1621      C1631   1.354       .  A
N1622      N1623   1.320       .  A
N1622      N1624   1.318       .  A
N1622     Mn1629   2.200       .  S
N1623      C1632   1.348       .  A
N1624      N1625   1.331       .  A
N1624     Mn1628   2.255       .  S
N1625      C1632   1.361       .  A
N1626      N1627   1.326       .  A
N1626     Mn1629   2.233       .  S
N1627      C1631   1.356       .  A
Mn1628    Cl1630   2.577       .  S
Mn1629    Cl1630   2.543       .  S
C1631      C1653   1.460       .  S
C1632      C1670   1.461       .  S
C1633      C1634   1.205       .  T
C1635      C1636   1.205       .  T
C1637      C1638   1.214       .  T
C1639      C1640   1.215       .  T
C1645      C1646   1.215       .  T
C1647      C1648   1.215       .  T
C1649      C1650   1.196       .  T
C1651      C1652   1.196       .  T
C1653      C1654   1.220       .  T
C1655      C1656   1.220       .  T
C1657      C1658   1.205   1_455  T
C1661      C1662   1.198   1_556  T
C1663      C1664   1.198       .  T
C1665      C1666   1.205       .  T
C1667      C1668   1.205       .  T
C1669      C1670   1.221       .  T
C1671      C1672   1.220       .  T
C1675      C1676   1.207       .  T
C1679      C1680   1.197       .  T
C1685      C1686   1.219       .  T
C1687      C1688   1.218       .  T
C1689      C1690   1.204       .  T
C1691      C1692   1.204       .  T
C1693      C1694   1.210       .  T
C1695      C1696   1.210       .  T
