geometry optimzed in LAMMPS
_audit_creation_date              2020-11-30 
_audit_creation_method            'lammps2cif' 
_symmetry_space_group_name_H-M    'P1' 
_symmetry_Int_Tables_number       1 
_symmetry_cell_setting            triclinic 
loop_ 
_symmetry_equiv_pos_as_xyz 
  x,y,z 
_cell_length_a                    37.06417542 
_cell_length_b                    37.15814228028449 
_cell_length_c                    34.201036791047656 
_cell_angle_alpha                 89.06404914746074 
_cell_angle_beta                  92.49212529919699 
_cell_angle_gamma                 90.10222388820138 
loop_ 
_atom_site_label 
_atom_site_type_symbol 
_atom_site_fract_x 
_atom_site_fract_y 
_atom_site_fract_z 
_atom_site_charge 
N1          N  0.57272587  0.12660851  0.24699808    -0.02900
C2          C  0.57785244  0.14862648  0.27835209    -0.00300
C3          C  0.58270702  0.18367439  0.26548205    -0.23200
C4          C  0.58331772  0.18300196  0.22549453    -0.23400
C5          C  0.57913707  0.14754869  0.21472075    -0.00400
H6          H  0.59080941  0.20632082  0.28334386     0.13400
H7          H  0.59179703  0.20506705  0.20696804     0.13400
O8          O  0.63915764  0.12237443  0.45844927    -0.57200
C9          C  0.65045713  0.11566632  0.07100623     0.75400
O10         O  0.72230898  0.04011759  0.00397593    -0.58400
C11         C  0.65331147  0.11552143  0.42639120     0.75400
C12         C  0.74904893  0.14991853  0.00175808     0.77800
Cd13       Cd  0.68908365  0.09959455  0.00112196     1.37500
O14         O  0.63835820  0.12400479  0.03700427    -0.57200
O15         O  0.71633683  0.15948543  0.99866870    -0.56000
C16         C  0.69374944  0.02132283  0.00153785     0.77700
O17         O  0.75459077  0.11638866  0.00545304    -0.58400
O18         O  0.68097699  0.10023565  0.07273411    -0.56900
O19         O  0.68522177  0.10325297  0.42885700    -0.56800
O20         O  0.66466482  0.03891640  0.99851712    -0.56000
N21         N  0.57695053  0.73793241  0.23599409    -0.02900
C22         C  0.58633563  0.71785000  0.26862634    -0.00300
C23         C  0.59435494  0.68312151  0.25831468    -0.23200
C24         C  0.59293136  0.68237574  0.21820754    -0.23400
C25         C  0.58399466  0.71667057  0.20483934    -0.00400
H26         H  0.60545659  0.66213826  0.27756549     0.13400
H27         H  0.60310293  0.66076623  0.20092851     0.13400
O28         O  0.63399397  0.75612478  0.02711318    -0.57200
C29         C  0.64569765  0.76728053  0.41840004     0.75400
O30         O  0.71377649  0.84547582  0.97653028    -0.58400
C31         C  0.64863298  0.76334718  0.06023421     0.75400
C32         C  0.74272858  0.74043285  0.48872909     0.77800
Cd33       Cd  0.68039558  0.78723303  0.98822409     1.37500
O34         O  0.67110179  0.79007330  0.41862978    -0.57200
O35         O  0.70828364  0.72783422  0.98905960    -0.56000
C36         C  0.69232593  0.86454069  0.99523507     0.77700
O37         O  0.74590456  0.77170264  0.99089105    -0.58400
O38         O  0.63657369  0.75610772  0.45166242    -0.56900
O39         O  0.67772601  0.78109396  0.05949646    -0.56800
O40         O  0.67251991  0.85441491  0.46997104    -0.56000
N41         N  0.56016584  0.09011289  0.24793078    -0.02900
C42         C  0.55643745  0.06730742  0.21696226    -0.00300
C43         C  0.55089242  0.03255398  0.23042165    -0.23200
C44         C  0.54885869  0.03395865  0.27016393    -0.23400
C45         C  0.55301256  0.06953585  0.28035558    -0.00400
H46         H  0.54390234  0.00942356  0.21278932     0.13400
H47         H  0.54045801  0.01207249  0.28897945     0.13400
O48         O  0.49747781  0.08168764  0.46128336    -0.57200
C49         C  0.48686650  0.08561320  0.06307394     0.75400
O50         O  0.41392455  0.13741701  0.48921363    -0.58400
C51         C  0.48330635  0.08523045  0.42714779     0.75400
C52         C  0.41538011  0.00065320  0.49197951     0.77800
Cd53       Cd  0.43993332  0.07559382  0.49635240     1.37500
O54         O  0.49063189  0.06071233  0.03883707    -0.57200
O55         O  0.41453976  0.02199647  0.46282096    -0.56000
C56         C  0.38277502  0.13039505  0.50114942     0.77700
O57         O  0.42383672  0.01491070  0.52446111    -0.58400
O58         O  0.46416816  0.10960515  0.05259294    -0.56900
O59         O  0.44915862  0.08647482  0.42518089    -0.56800
O60         O  0.37782241  0.09779762  0.51101985    -0.56000
N61         N  0.56096888  0.77307579  0.23477546    -0.02900
C62         C  0.55395805  0.79409030  0.20215845    -0.00300
C63         C  0.54637642  0.82882893  0.21265278    -0.23200
C64         C  0.54569034  0.82893036  0.25252996    -0.23400
C65         C  0.55341255  0.79432718  0.26583528    -0.00400
H66         H  0.53681499  0.85042785  0.19326282     0.13400
H67         H  0.53561102  0.85077842  0.26952047     0.13400
O68         O  0.44814055  0.75361722  0.40803337    -0.57200
C69         C  0.48412416  0.77137539  0.05104615     0.75400
O70         O  0.42449053  0.82519695  0.51171855    -0.58400
C71         C  0.47947599  0.76716017  0.40921681     0.75400
C72         C  0.37491648  0.71418077  0.46961005     0.77800
Cd73       Cd  0.43254450  0.76826555  0.47612707     1.37500
O74         O  0.45030248  0.76711898  0.05135133    -0.57200
O75         O  0.36798656  0.74752137  0.46699756    -0.56000
C76         C  0.41349527  0.84438436  0.48288858     0.77700
O77         O  0.40806216  0.70640141  0.47411950    -0.58400
O78         O  0.49702612  0.77571363  0.01766593    -0.56900
O79         O  0.48968205  0.78045657  0.44172074    -0.56800
O80         O  0.40919997  0.82795914  0.45083730    -0.56000
N81         N  0.23651217  0.42464287  0.23822589    -0.02900
C82         C  0.25784225  0.43001473  0.20697816    -0.00300
C83         C  0.29327299  0.43491033  0.22029134    -0.23200
C84         C  0.29351130  0.43537508  0.26029881    -0.23400
C85         C  0.25823023  0.43104540  0.27071732    -0.00400
H86         H  0.31564115  0.44319019  0.20289588     0.13400
H87         H  0.31603788  0.44376382  0.27923200     0.13400
O88         O  0.24215108  0.50210039  0.03157584    -0.57200
C89         C  0.22643474  0.49965140  0.41661680     0.75400
O90         O  0.15064539  0.52050894  0.48379326    -0.58400
C91         C  0.22781788  0.51093698  0.06288365     0.75400
C92         C  0.26718019  0.59933313  0.47767343     0.77800
Cd93       Cd  0.21426659  0.54149267  0.48575623     1.37500
O94         O  0.22953408  0.48564968  0.45054390    -0.57200
O95         O  0.23373906  0.60622554  0.47843345    -0.56000
C96         C  0.13555372  0.55100474  0.48143495     0.77700
O97         O  0.27525853  0.56639143  0.48038293    -0.58400
O98         O  0.21685890  0.53234876  0.41502109    -0.56900
O99         O  0.20977198  0.53979698  0.06098536    -0.56800
O100        O  0.15683999  0.57772906  0.48192148    -0.56000
N101        N  0.87259615  0.44842580  0.23618428    -0.02900
C102        C  0.84800776  0.45095625  0.26488384    -0.00300
C103        C  0.81357632  0.45306025  0.24781054    -0.23200
C104        C  0.81717459  0.45631358  0.20823612    -0.23400
C105        C  0.85374426  0.45559370  0.20191388    -0.00400
H106        H  0.78908920  0.45879340  0.26269389     0.13400
H107        H  0.79580314  0.46392361  0.18716055     0.13400
O108        O  0.88165930  0.51695565  0.02395175    -0.57200
C109        C  0.87473025  0.52576324  0.41130945     0.75400
O110        O  0.88209148  0.63281269  0.97950087    -0.58400
C111        C  0.89069114  0.52810245  0.05768708     0.75400
C112        C  0.98154581  0.57291037  0.98867807     0.77800
Cd113      Cd  0.90315714  0.56882227  0.98795459     1.37500
O114        O  0.87465823  0.51124621  0.44496543    -0.57200
O115        O  0.96273991  0.60126069  0.98469335    -0.56000
C116        C  0.85212278  0.62737606  0.99509601     0.77700
O117        O  0.96402170  0.54399270  0.99249284    -0.58400
O118        O  0.88522513  0.55824647  0.41013661    -0.56900
O119        O  0.90651586  0.55843759  0.05910011    -0.56800
O120        O  0.84736620  0.59598582  0.00839393    -0.56000
N121        N  0.20023739  0.41113653  0.23752381    -0.02900
C122        C  0.18006983  0.40329232  0.26911111    -0.00300
C123        C  0.14458366  0.39735536  0.25704329    -0.23200
C124        C  0.14317083  0.39855303  0.21697004    -0.23400
C125        C  0.17779313  0.40554294  0.20533797    -0.00400
H126        H  0.12316385  0.38785444  0.27512342     0.13400
H127        H  0.12048381  0.38982485  0.19847953     0.13400
O128        O  0.21047309  0.35466507  0.02651691    -0.57200
C129        C  0.21407601  0.33730013  0.42070250     0.75400
O130        O  0.23884839  0.23493225  0.50047673    -0.58400
C131        C  0.21218129  0.33876879  0.05961827     0.75400
C132        C  0.13843835  0.27783579  0.49902975     0.77800
Cd133      Cd  0.21405292  0.29769569  0.49442611     1.37500
O134        O  0.21366906  0.30323020  0.42218704    -0.57200
O135        O  0.15903910  0.28090503  0.52919531    -0.56000
C136        C  0.27187367  0.24329430  0.49831656     0.77700
O137        O  0.15382952  0.27964926  0.46686201    -0.58400
O138        O  0.21786191  0.35299129  0.45319236    -0.56900
O139        O  0.21722151  0.30516878  0.05926260    -0.56800
O140        O  0.27809722  0.27665605  0.49446632    -0.56000
N141        N  0.90914020  0.43576370  0.24005814    -0.02900
C142        C  0.93181238  0.42863455  0.21043573    -0.00300
C143        C  0.96670219  0.42409308  0.22555484    -0.23200
C144        C  0.96568845  0.42707623  0.26519748    -0.23400
C145        C  0.93010219  0.43274549  0.27377671    -0.00400
H146        H  0.98975600  0.41517063  0.20992822     0.13400
H147        H  0.98767523  0.42038219  0.28590050     0.13400
O148        O  0.89140756  0.33515015  0.42869082    -0.57200
C149        C  0.90828225  0.35963368  0.06008341     0.75400
O150        O  0.84845144  0.30377812  0.49112093    -0.58400
C151        C  0.90739579  0.36480063  0.42371642     0.75400
C152        C  0.98393479  0.29667085  0.50531777     0.77800
Cd153      Cd  0.91125131  0.32597460  0.49856245     1.37500
O154        O  0.92987347  0.36699193  0.03341167    -0.57200
O155        O  0.96883245  0.31031380  0.53388767    -0.56000
C156        C  0.85611000  0.27104010  0.49834671     0.77700
O157        O  0.96436123  0.29432671  0.47425898    -0.58400
O158        O  0.88639743  0.33426704  0.05258635    -0.56900
O159        O  0.92338584  0.37731461  0.45397241    -0.56800
O160        O  0.88905329  0.26404898  0.50651608    -0.56000
C161        C  0.89570399  0.38779971  0.16648707    -0.19700
C162        C  0.92177924  0.41513765  0.17051874    -0.06300
C163        C  0.94144766  0.42527456  0.13738825     0.14600
C164        C  0.93510025  0.40751556  0.10194854    -0.19800
C165        C  0.91000138  0.37931005  0.09800127    -0.06300
C166        C  0.88943765  0.36981989  0.13077625     0.14600
C167        C  0.86155227  0.34027848  0.12904558    -0.23100
H168        H  0.88106663  0.37957321  0.19189762     0.15900
H169        H  0.95079665  0.41551573  0.07722816     0.15900
C170        C  0.96974545  0.45451475  0.13791116    -0.23100
H171        H  0.84803307  0.33689219  0.15722868     0.06100
H172        H  0.87455098  0.31427622  0.12262646     0.09300
H173        H  0.84037281  0.34681332  0.10607393     0.09300
H174        H  0.99640781  0.44267896  0.13200729     0.09300
H175        H  0.97225614  0.46876913  0.16596484     0.09300
H176        H  0.96283286  0.47488500  0.11469236     0.06100
C177        C  0.89820762  0.38779729  0.31385730    -0.19700
C178        C  0.91823104  0.41984079  0.31226044    -0.06300
C179        C  0.93296970  0.43438262  0.34735632     0.14600
C180        C  0.92836330  0.41602258  0.38288799    -0.19800
C181        C  0.90877344  0.38360715  0.38484207    -0.06300
C182        C  0.89275900  0.36974106  0.34965078     0.14600
C183        C  0.87036170  0.33584032  0.34902064    -0.23100
H184        H  0.88763723  0.37633243  0.28675481     0.15900
H185        H  0.94044741  0.42734298  0.40938946     0.15900
C186        C  0.95365756  0.46935011  0.34831348    -0.23100
H187        H  0.85954660  0.32972292  0.31906240     0.06100
H188        H  0.84696120  0.33897626  0.36786832     0.09300
H189        H  0.88709963  0.31256457  0.35942457     0.09300
H190        H  0.95400902  0.48300981  0.31926833     0.09300
H191        H  0.98194092  0.46424553  0.35898325     0.09300
H192        H  0.94095464  0.48808442  0.36857466     0.06100
C193        C  0.07843140  0.26821269  0.95524620    -0.19700
C194        C  0.09841506  0.27566621  0.50162953    -0.06300
C195        C  0.07467773  0.26882021  0.46896223     0.14600
C196        C  0.03733129  0.27339873  0.47233133    -0.19800
C197        C  0.02276183  0.28594482  0.50685351    -0.06300
C198        C  0.04073045  0.27250793  0.95271872     0.14600
C199        C  0.02145569  0.26904111  0.91321329    -0.23100
H200        H  0.09255411  0.26315384  0.92880097     0.15900
H201        H  0.01954631  0.26894055  0.44687381     0.15900
C202        C  0.08813345  0.25759399  0.43001300    -0.23100
H203        H  0.04006201  0.26070177  0.89044136     0.06100
H204        H  0.00968204  0.29531976  0.90358569     0.09300
H205        H  0.99985722  0.24837686  0.91478994     0.09300
H206        H  0.10511598  0.23308681  0.43393722     0.09300
H207        H  0.10392488  0.27973081  0.41687584     0.09300
H208        H  0.06556807  0.25124950  0.40880134     0.06100
C209        C  0.17886474  0.40334129  0.34158366    -0.19700
C210        C  0.19342634  0.38898275  0.30798452    -0.06300
C211        C  0.21551016  0.35795589  0.31192654     0.14600
C212        C  0.22310436  0.34276915  0.34929545    -0.19800
C213        C  0.20881459  0.35730440  0.38291967    -0.06300
C214        C  0.18640038  0.38813752  0.37896306     0.14600
C215        C  0.16857641  0.40399751  0.41354104    -0.23100
H216        H  0.16098819  0.42636328  0.33835702     0.15900
H217        H  0.23958181  0.31872039  0.35219534     0.15900
C218        C  0.22928911  0.33928290  0.27681965    -0.23100
H219        H  0.15085502  0.42708456  0.40472796     0.06100
H220        H  0.18930077  0.41400757  0.43505487     0.09300
H221        H  0.15169220  0.38326632  0.42771083     0.09300
H222        H  0.20626948  0.33204188  0.25661029     0.09300
H223        H  0.24400164  0.31410948  0.28519342     0.09300
H224        H  0.24836151  0.35698799  0.26156892     0.06100
C225        C  0.18091562  0.38584128  0.09622658    -0.19700
C226        C  0.20638445  0.35786032  0.09662284    -0.06300
C227        C  0.22337764  0.34693703  0.13272370     0.14600
C228        C  0.21475906  0.36443336  0.16712823    -0.19800
C229        C  0.18897693  0.39202786  0.16694946    -0.06300
C230        C  0.17147570  0.40258253  0.13088661     0.14600
C231        C  0.14261458  0.43114856  0.12774776    -0.23100
H232        H  0.16727067  0.39390912  0.06880637     0.15900
H233        H  0.22764243  0.35578187  0.19460406     0.15900
C234        C  0.25095324  0.31711837  0.13541102    -0.23100
H235        H  0.14968800  0.45155800  0.10527417     0.06100
H236        H  0.13931723  0.44545124  0.15552374     0.09300
H237        H  0.11643189  0.41868861  0.11857489     0.09300
H238        H  0.27297368  0.32298227  0.11524463     0.09300
H239        H  0.23800540  0.29108344  0.12782556     0.09300
H240        H  0.26331254  0.31410437  0.16547001     0.06100
C241        C  0.84763557  0.45248737  0.33780581    -0.19700
C242        C  0.85421280  0.47043972  0.30236815    -0.06300
C243        C  0.85963623  0.50823635  0.30332490     0.14600
C244        C  0.86619644  0.52500305  0.33922774    -0.19800
C245        C  0.86438219  0.50609034  0.37486100    -0.06300
C246        C  0.85319244  0.46950596  0.37412790     0.14600
C247        C  0.84689617  0.44806998  0.41101462    -0.23100
H248        H  0.83869675  0.42473707  0.33704514     0.15900
H249        H  0.87202668  0.55361098  0.33916906     0.15900
C250        C  0.85534476  0.53286277  0.26806035    -0.23100
H251        H  0.83750518  0.42029903  0.40456147     0.06100
H252        H  0.82586396  0.46133862  0.42787195     0.09300
H253        H  0.87231967  0.44580053  0.42920657     0.09300
H254        H  0.84848286  0.51875078  0.24064359     0.09300
H255        H  0.88050322  0.54864060  0.26479916     0.09300
H256        H  0.83303051  0.55206401  0.27252486     0.06100
C257        C  0.85112619  0.46111221  0.13001891    -0.19700
C258        C  0.86785406  0.47203981  0.16551864    -0.06300
C259        C  0.89341599  0.50069986  0.16472757     0.14600
C260        C  0.90048841  0.51751499  0.12891720    -0.19800
C261        C  0.88305768  0.50713718  0.09372254    -0.06300
C262        C  0.85814818  0.47815197  0.09428526     0.14600
C263        C  0.83765031  0.46558540  0.05794364    -0.23100
H264        H  0.83166741  0.43928921  0.13044458     0.15900
H265        H  0.91978829  0.53948466  0.12869835     0.15900
C266        C  0.91340192  0.51599304  0.20001166    -0.23100
H267        H  0.81855086  0.44343194  0.06446538     0.06100
H268        H  0.85677893  0.45518432  0.03671961     0.09300
H269        H  0.82162019  0.48813485  0.04452100     0.09300
H270        H  0.94291958  0.51433815  0.19640029     0.09300
H271        H  0.90792018  0.50242935  0.22779943     0.09300
H272        H  0.90627738  0.54484586  0.20247705     0.06100
C273        C  0.03435611  0.53295455  0.46359488    -0.19700
C274        C  0.01870580  0.56456002  0.47741170    -0.06300
C275        C  0.04209912  0.59256984  0.49061842     0.14600
C276        C  0.07988780  0.58750986  0.49099114    -0.19800
C277        C  0.09531888  0.55524168  0.47868802    -0.06300
C278        C  0.07196557  0.52791997  0.46391624     0.14600
C279        C  0.08618170  0.49353779  0.44747044    -0.23100
H280        H  0.02300847  0.52252354  0.02218431     0.15900
H281        H  0.09754657  0.60877856  0.50171973     0.15900
C282        C  0.02780300  0.62785847  0.50448748    -0.23100
H283        H  0.07168826  0.48935457  0.04369553     0.06100
H284        H  0.10046002  0.47742816  0.47095054     0.09300
H285        H  0.10551401  0.48774458  0.00816671     0.09300
H286        H  0.01148690  0.62323442  0.53056835     0.09300
H287        H  0.00660790  0.62298519  0.92743474     0.09300
H288        H  0.04993843  0.64675011  0.51296396     0.06100
C289        C  0.21954463  0.47294828  0.16683107    -0.19700
C290        C  0.24597829  0.44591485  0.16817129    -0.06300
C291        C  0.26426678  0.43866934  0.13366299     0.14600
C292        C  0.25741141  0.46011257  0.10003645    -0.19800
C293        C  0.23232345  0.48849416  0.09932434    -0.04700
C294        C  0.21207780  0.49399638  0.13297033     0.14600
C295        C  0.18242700  0.52169045  0.13383633    -0.23100
H296        H  0.20497728  0.47823347  0.19275351     0.15900
H297        H  0.27229417  0.45467563  0.07417661     0.15900
C298        C  0.29117690  0.40852739  0.13108884    -0.23100
H299        H  0.16840470  0.52069563  0.16190617     0.06100
H300        H  0.16188592  0.51674713  0.10998038     0.09300
H301        H  0.19389188  0.54914702  0.13054056     0.09300
H302        H  0.28324977  0.39121539  0.10600236     0.09300
H303        H  0.29272121  0.39105812  0.15767617     0.09300
H304        H  0.31837260  0.41990937  0.12622084     0.06100
C305        C  0.26245276  0.43289186  0.34345117    -0.19700
C306        C  0.24688639  0.44660037  0.30808995    -0.06300
C307        C  0.22530841  0.47790932  0.30887813     0.14600
C308        C  0.21855485  0.49357426  0.34482317    -0.19800
C309        C  0.23342255  0.47961840  0.38033495    -0.06300
C310        C  0.25584388  0.44872771  0.37958620     0.14600
C311        C  0.27403324  0.43295270  0.41621617    -0.23100
H312        H  0.28002810  0.40965950  0.34264694     0.15900
H313        H  0.20178639  0.51743667  0.34504528     0.15900
C314        C  0.21073649  0.49625078  0.27199042    -0.23100
H315        H  0.29138180  0.40963848  0.40975592     0.06100
H316        H  0.25352445  0.42327740  0.43657126     0.09300
H317        H  0.29138539  0.45360969  0.43074703     0.09300
H318        H  0.19032853  0.47879435  0.25718881     0.09300
H319        H  0.23314900  0.50229917  0.25241632     0.09300
H320        H  0.19719095  0.52208240  0.27803951     0.06100
C321        C  0.35728367  0.65025631  0.48016090    -0.19700
C322        C  0.34652195  0.68533823  0.46899430    -0.06300
C323        C  0.30946113  0.69151425  0.45889614     0.14600
C324        C  0.28447145  0.66295790  0.46170354    -0.19800
C325        C  0.29524481  0.62810940  0.47396440    -0.06300
C326        C  0.33249946  0.62176375  0.48284476     0.14600
C327        C  0.34675039  0.58538123  0.49626253    -0.23100
H328        H  0.38551307  0.64504336  0.48771963     0.15900
H329        H  0.25619129  0.66798127  0.45428673     0.15900
C330        C  0.29582716  0.72783617  0.44477756    -0.23100
H331        H  0.37632032  0.58591461  0.50314482     0.06100
H332        H  0.34186270  0.56543113  0.47281822     0.09300
H333        H  0.33343941  0.57655459  0.52325913     0.09300
H334        H  0.30450826  0.75548276  0.95570927     0.09300
H335        H  0.30003843  0.74788291  0.46825818     0.09300
H336        H  0.26648913  0.72727971  0.43667490     0.06100
C337        C  0.51560718  0.75405394  0.30695722    -0.19700
C338        C  0.54049796  0.78251760  0.30485121    -0.06300
C339        C  0.54802856  0.80300142  0.33891658     0.14600
C340        C  0.52855643  0.79648115  0.37264372    -0.19800
C341        C  0.50217783  0.76936389  0.37411660    -0.06300
C342        C  0.49716280  0.74657743  0.34139620     0.14600
C343        C  0.47302807  0.71395346  0.34259771    -0.23100
H344        H  0.50999881  0.73798551  0.28127716     0.15900
H345        H  0.53358877  0.81345519  0.39778835     0.15900
C346        C  0.57634255  0.83219919  0.34076645    -0.23100
H347        H  0.47476195  0.69770671  0.31575487     0.06100
H348        H  0.44443267  0.72220277  0.34474311     0.09300
H349        H  0.48133195  0.69649564  0.36802699     0.09300
H350        H  0.56318751  0.85869463  0.34430565     0.09300
H351        H  0.59275781  0.83335658  0.31446053     0.09300
H352        H  0.59525376  0.82715055  0.36633209     0.06100
C353        C  0.55479960  0.79734478  0.12980775    -0.19700
C354        C  0.54010850  0.78178947  0.16326700    -0.06300
C355        C  0.50861230  0.76048118  0.15904426     0.14600
C356        C  0.49223090  0.75608104  0.12166927    -0.19800
C357        C  0.50640781  0.77229539  0.08822106    -0.06300
C358        C  0.53909677  0.79198584  0.09223007     0.14600
C359        C  0.55691898  0.80872235  0.05756487    -0.23100
H360        H  0.57845935  0.81436990  0.13331714     0.15900
H361        H  0.46740880  0.74070861  0.11873008     0.15900
C362        C  0.49065646  0.74435343  0.19394649    -0.23100
H363        H  0.58219437  0.82312765  0.06641584     0.06100
H364        H  0.53839136  0.82845344  0.04249792     0.09300
H365        H  0.56413924  0.78742576  0.03693960     0.09300
H366        H  0.46522154  0.73015268  0.18532118     0.09300
H367        H  0.48392007  0.76587564  0.21455038     0.09300
H368        H  0.50879334  0.72442091  0.20903645     0.06100
C369        C  0.29490126  0.18365478  0.00463427    -0.19700
C370        C  0.30123144  0.21535181  0.50028457    -0.06300
C371        C  0.33620193  0.22162518  0.48623845     0.14600
C372        C  0.36184317  0.19358538  0.48754796    -0.19800
C373        C  0.35411764  0.15902685  0.50255687    -0.06300
C374        C  0.31945511  0.15306994  0.51768842     0.14600
C375        C  0.31023417  0.11938180  0.02077846    -0.23100
H376        H  0.26803935  0.17760596  0.01422344     0.15900
H377        H  0.38821510  0.19875118  0.47615903     0.15900
C378        C  0.34673542  0.25743082  0.46873311    -0.23100
H379        H  0.28203979  0.11900321  0.03055111     0.06100
H380        H  0.32801554  0.11081857  0.56093998     0.09300
H381        H  0.31203293  0.09916748  0.99739384     0.09300
H382        H  0.34586681  0.27862674  0.49116075     0.09300
H383        H  0.32809171  0.26441004  0.44346761     0.09300
H384        H  0.37458537  0.25704210  0.45798913     0.06100
C385        C  0.41083075  0.90512640  0.45142154    -0.19700
C386        C  0.40836686  0.88417511  0.48571105    -0.06300
C387        C  0.40757744  0.90949702  0.01355023     0.14600
C388        C  0.40725457  0.94736962  0.01233202    -0.19800
C389        C  0.40914441  0.96093345  0.48825436    -0.06300
C390        C  0.41162953  0.94295671  0.45210916     0.14600
C391        C  0.41694012  0.96299343  0.41407619    -0.23100
H392        H  0.41399557  0.89174585  0.42385024     0.15900
H393        H  0.40185643  0.96172451  0.03878351     0.15900
C394        C  0.40030442  0.89056715  0.05173932    -0.23100
H395        H  0.41875232  0.94446942  0.38906317     0.06100
H396        H  0.44246605  0.97866180  0.41603338     0.09300
H397        H  0.39371389  0.98122577  0.40739258     0.09300
H398        H  0.42415106  0.87427636  0.06171218     0.09300
H399        H  0.37621357  0.87296760  0.04799152     0.09300
H400        H  0.39483675  0.90987033  0.07522126     0.06100
C401        C  0.51402415  0.10039329  0.17108131    -0.19700
C402        C  0.54358582  0.07701868  0.17633036    -0.06300
C403        C  0.55601589  0.05874410  0.14348327     0.14600
C404        C  0.53767223  0.06310116  0.10691831    -0.19800
C405        C  0.50728299  0.08558211  0.10175891    -0.06300
C406        C  0.49595357  0.10525067  0.13431676     0.14600
C407        C  0.46401905  0.13033007  0.13132199    -0.23100
H408        H  0.50424735  0.11406774  0.19627115     0.15900
H409        H  0.54709773  0.04834675  0.08225882     0.15900
C410        C  0.58850353  0.03431579  0.14594965    -0.23100
H411        H  0.45883581  0.14281323  0.15983717     0.06100
H412        H  0.43933376  0.11529345  0.12187132     0.09300
H413        H  0.46919363  0.15246306  0.11009531     0.09300
H414        H  0.58000305  0.00636318  0.13918953     0.09300
H415        H  0.60274171  0.03435941  0.17512119     0.09300
H416        H  0.60816109  0.04333367  0.12422088     0.06100
C417        C  0.55495717  0.06646462  0.35288390    -0.19700
C418        C  0.53891679  0.08132327  0.31834153    -0.06300
C419        C  0.50591529  0.10009546  0.32050348     0.14600
C420        C  0.48936988  0.10237394  0.35674338    -0.19800
C421        C  0.50489961  0.08654264  0.39116253    -0.06300
C422        C  0.53895632  0.06940669  0.38924385     0.14600
C423        C  0.55798096  0.05243565  0.42475630    -0.23100
H424        H  0.57984179  0.05139920  0.35106166     0.15900
H425        H  0.46348243  0.11572607  0.35794540     0.15900
C426        C  0.48680208  0.11572483  0.28437457    -0.23100
H427        H  0.58389915  0.03977691  0.41743596     0.06100
H428        H  0.54070255  0.03118762  0.43742208     0.09300
H429        H  0.56431907  0.07331504  0.44688417     0.09300
H430        H  0.46072645  0.12834443  0.29115390     0.09300
H431        H  0.48109827  0.09414442  0.26286403     0.09300
H432        H  0.50373554  0.13677349  0.27101093     0.06100
C433        C  0.76157674  0.67521360  0.00245609    -0.19700
C434        C  0.77080553  0.71111317  0.99410781    -0.06300
C435        C  0.80754386  0.71964729  0.98844656     0.14600
C436        C  0.83340199  0.69185888  0.98953208    -0.19800
C437        C  0.82388411  0.65579531  0.99687097    -0.06300
C438        C  0.78732235  0.64759514  0.00415873     0.14600
C439        C  0.77449506  0.60982856  0.01286706    -0.23100
H440        H  0.73369610  0.66848543  0.00757463     0.15900
H441        H  0.86132840  0.69839646  0.98440712     0.15900
C442        C  0.81988176  0.75765399  0.98065436    -0.23100
H443        H  0.74493586  0.60869704  0.01689701     0.06100
H444        H  0.78800949  0.59948061  0.04037652     0.09300
H445        H  0.77641451  0.59313899  0.50445188     0.09300
H446        H  0.81406647  0.77478153  0.00589387     0.09300
H447        H  0.79133577  0.75508715  0.42053680     0.09300
H448        H  0.84940032  0.75909987  0.97643172     0.06100
C449        C  0.62533035  0.75578356  0.16782725    -0.19700
C450        C  0.59819674  0.72949561  0.16689208    -0.06300
C451        C  0.58837777  0.71356936  0.13060246     0.14600
C452        C  0.60545552  0.72498138  0.09657982    -0.19800
C453        C  0.63244352  0.75170806  0.09759376    -0.06300
C454        C  0.64261059  0.76712842  0.13411832     0.14600
C455        C  0.67106275  0.79606532  0.13824302    -0.23100
H456        H  0.63325831  0.76777392  0.19542954     0.15900
H457        H  0.59734349  0.71289627  0.06889469     0.15900
C458        C  0.55933992  0.68530829  0.12641478    -0.23100
H459        H  0.67440689  0.80561579  0.16883399     0.06100
H460        H  0.66329917  0.81966857  0.11941457     0.09300
H461        H  0.69758407  0.78543525  0.13001985     0.09300
H462        H  0.53839084  0.69446500  0.10429177     0.09300
H463        H  0.54565234  0.67975141  0.15404394     0.09300
H464        H  0.57130570  0.65987499  0.11640945     0.06100
C465        C  0.64297820  0.76758219  0.34602501    -0.19700
C466        C  0.62875274  0.75438314  0.38085042    -0.06300
C467        C  0.60011585  0.72895903  0.37839269     0.14600
C468        C  0.58719580  0.71736998  0.34139023    -0.19800
C469        C  0.60053776  0.73190519  0.30673945    -0.06300
C470        C  0.62943927  0.75673616  0.30926740     0.14600
C471        C  0.64738996  0.77095574  0.27361492    -0.23100
H472        H  0.66513262  0.78664624  0.34739744     0.15900
H473        H  0.56580291  0.69746909  0.33934075     0.15900
C474        C  0.58260902  0.71405701  0.41415316    -0.23100
H475        H  0.65655460  0.74811373  0.25605948     0.06100
H476        H  0.62834150  0.78836591  0.25625060     0.09300
H477        H  0.67145225  0.78767901  0.28132411     0.09300
H478        H  0.57110235  0.73638194  0.43082595     0.09300
H479        H  0.60275739  0.69894812  0.43289667     0.09300
H480        H  0.56017755  0.69528006  0.40634340     0.06100
C481        C  0.83842576  0.19846955  0.98513139    -0.19700
C482        C  0.82828007  0.24221125  0.49800885    -0.06300
C483        C  0.79772162  0.24257361  0.47171687     0.14600
C484        C  0.77234444  0.21446527  0.47348799    -0.19800
C485        C  0.77697335  0.18537971  0.50012568    -0.06300
C486        C  0.81335664  0.17008526  0.98781116     0.14600
C487        C  0.82413902  0.13306040  0.97531735    -0.23100
H488        H  0.86486122  0.19305619  0.97424225     0.15900
H489        H  0.74889301  0.21498963  0.45342636     0.15900
C490        C  0.79237991  0.27156529  0.44062674    -0.23100
H491        H  0.85199408  0.13272686  0.96459104     0.06100
H492        H  0.80549016  0.12381889  0.95123069     0.09300
H493        H  0.82332678  0.11393416  0.00052236     0.09300
H494        H  0.81628533  0.27283162  0.42219877     0.09300
H495        H  0.78839766  0.29802775  0.45440472     0.09300
H496        H  0.76827240  0.26631385  0.42111731     0.06100
C497        C  0.66368492  0.92305620  0.00750946    -0.19700
C498        C  0.69505976  0.90453246  0.99821531    -0.06300
C499        C  0.72668544  0.92774250  0.51590439     0.14600
C500        C  0.72616145  0.96579144  0.51609229    -0.19800
C501        C  0.69396784  0.98108549  0.00183950    -0.06300
C502        C  0.66256042  0.96065990  0.00944889     0.14600
C503        C  0.62750619  0.97779660  0.02023052    -0.23100
H504        H  0.63925442  0.90793803  0.01267968     0.15900
H505        H  0.74443694  0.98007379  0.53598926     0.15900
C506        C  0.75314811  0.90819662  0.54331493    -0.23100
H507        H  0.60680852  0.95740426  0.02758688     0.06100
H508        H  0.61604351  0.99411576  0.99523272     0.09300
H509        H  0.63213619  0.99488672  0.04631106     0.09300
H510        H  0.77121963  0.89121371  0.52630941     0.09300
H511        H  0.73838664  0.89114622  0.56426829     0.09300
H512        H  0.77037915  0.92715075  0.56063046     0.06100
C513        C  0.62267876  0.11307397  0.31860431    -0.19700
C514        C  0.59375002  0.13739301  0.31728725    -0.06300
C515        C  0.58379376  0.15354158  0.35237977     0.14600
C516        C  0.60360025  0.14560448  0.38734378    -0.19800
C517        C  0.63336058  0.12209038  0.38836222    -0.06300
C518        C  0.64273983  0.10529792  0.35336419     0.14600
C519        C  0.67345710  0.07884787  0.35202147    -0.23100
H520        H  0.63003147  0.10028807  0.29217584     0.15900
H521        H  0.59577625  0.15826253  0.41402151     0.15900
C522        C  0.55199043  0.17856670  0.35424259    -0.23100
H523        H  0.67560416  0.06729476  0.32245401     0.06100
H524        H  0.66912541  0.05621318  0.37284881     0.09300
H525        H  0.69945642  0.09246059  0.35946380     0.09300
H526        H  0.53315670  0.16798770  0.37605241     0.09300
H527        H  0.53648323  0.18138447  0.32592832     0.09300
H528        H  0.56152875  0.20560012  0.36342876     0.06100
C529        C  0.58045733  0.14836532  0.14207064    -0.19700
C530        C  0.59564203  0.13582303  0.17803821    -0.06300
C531        C  0.62918049  0.11771545  0.17845492     0.14600
C532        C  0.64598112  0.11172436  0.14318609    -0.19800
C533        C  0.63041875  0.12324122  0.10696857    -0.06300
C534        C  0.59672677  0.14155304  0.10649725     0.14600
C535        C  0.57748106  0.15419649  0.06905122    -0.23100
H536        H  0.55542270  0.16341447  0.14191144     0.15900
H537        H  0.67169289  0.09783697  0.14407702     0.15900
C538        C  0.64822347  0.10561198  0.21599057    -0.23100
H539        H  0.55148537  0.16763645  0.07457866     0.06100
H540        H  0.57121501  0.13082505  0.05009378     0.09300
H541        H  0.59454278  0.17389133  0.05353708     0.09300
H542        H  0.63202882  0.08420739  0.22980621     0.09300
H543        H  0.65212224  0.12884422  0.23570206     0.09300
H544        H  0.67525501  0.09409522  0.21109865     0.06100
N545        N  0.57586712  0.12487616  0.74582334    -0.02900
C546        C  0.57917789  0.14727696  0.77705595    -0.00300
C547        C  0.58084480  0.18260476  0.76395357    -0.23200
C548        C  0.58149475  0.18192201  0.72396402    -0.23400
C549        C  0.58053947  0.14620757  0.71355221    -0.00400
H550        H  0.58695622  0.20592487  0.78164176     0.13400
H551        H  0.58790700  0.20459440  0.70522484     0.13400
O552        O  0.63794021  0.11781977  0.95736039    -0.57200
C553        C  0.65118944  0.11583987  0.56979314     0.75400
O554        O  0.66940607  0.04182114  0.49148617    -0.58400
C555        C  0.65386720  0.11414050  0.92574562     0.75400
C556        C  0.74839575  0.15706785  0.50065815     0.77800
Cd557      Cd  0.69088524  0.10325930  0.50049907     1.37500
O558        O  0.68103962  0.09926775  0.57118884    -0.57200
O559        O  0.71649258  0.16367186  0.48819150    -0.56000
C560        C  0.69915252  0.02548947  0.49600733     0.77700
O561        O  0.75410219  0.12520518  0.51304894    -0.58400
O562        O  0.64006920  0.12657873  0.53626278    -0.56900
O563        O  0.68635546  0.10374330  0.92907035    -0.56800
O564        O  0.72645507  0.04509057  0.50393959    -0.56000
N565        N  0.55797638  0.77754566  0.73263307    -0.02900
C566        C  0.56246254  0.79973324  0.76407597    -0.00300
C567        C  0.56683467  0.83486425  0.75118689    -0.23200
C568        C  0.56742393  0.83430314  0.71127960    -0.23400
C569        C  0.56369435  0.79884551  0.70047886    -0.00400
H570        H  0.57416059  0.85774010  0.76905942     0.13400
H571        H  0.57521950  0.85661126  0.69270516     0.13400
O572        O  0.62454299  0.79187471  0.52241627    -0.57200
C573        C  0.63743149  0.78124376  0.91484439     0.75400
O574        O  0.71753248  0.84710995  0.51040081    -0.58400
C575        C  0.63740546  0.78434760  0.55642615     0.75400
C576        C  0.74090158  0.73797621  0.99115709     0.77800
Cd577      Cd  0.68281494  0.79136884  0.48947687     1.37500
O578        O  0.62378243  0.79010435  0.94653623    -0.57200
O579        O  0.71698337  0.73734759  0.51165613    -0.56000
C580        C  0.69766521  0.86884358  0.49036764     0.77700
O581        O  0.74198356  0.76848611  0.46726958    -0.58400
O582        O  0.67088203  0.77449539  0.91709798    -0.56900
O583        O  0.67122943  0.77928134  0.55915830    -0.56800
O584        O  0.66677737  0.84764836  0.01060011    -0.56000
N585        N  0.56676509  0.08738215  0.74682894    -0.02900
C586        C  0.56451825  0.06437169  0.71599019    -0.00300
C587        C  0.56163910  0.02932101  0.72979824    -0.23200
C588        C  0.55926218  0.03078753  0.76955514    -0.23400
C589        C  0.56063620  0.06665089  0.77924321    -0.00400
H590        H  0.55596206  0.00571853  0.71242659     0.13400
H591        H  0.55192200  0.00856561  0.78847967     0.13400
O592        O  0.45321277  0.09153671  0.91955896    -0.57200
C593        C  0.48695895  0.08100136  0.56643669     0.75400
O594        O  0.41678605  0.14304602  0.98113454    -0.58400
C595        C  0.48735936  0.09064545  0.92239090     0.75400
C596        C  0.42080233  0.00686225  0.98151106     0.77800
Cd597      Cd  0.44331653  0.08168119  0.98981528     1.37500
O598        O  0.46227799  0.10367672  0.55815965    -0.57200
O599        O  0.43019069  0.02626850  0.95311394    -0.56000
C600        C  0.38515309  0.13515615  0.99100269     0.77700
O601        O  0.41819791  0.02311839  0.01354392    -0.58400
O602        O  0.49066987  0.05669113  0.54149691    -0.56900
O603        O  0.50117133  0.08932806  0.95688250    -0.56800
O604        O  0.38018583  0.10224871  0.99947499    -0.56000
N605        N  0.54614850  0.74078937  0.73293680    -0.02900
C606        C  0.54159335  0.71872398  0.70142430    -0.00300
C607        C  0.53712020  0.68359234  0.71428876    -0.23200
C608        C  0.53618055  0.68417234  0.75423850    -0.23400
C609        C  0.53985954  0.71963242  0.76501477    -0.00400
H610        H  0.52958896  0.66080316  0.69636453     0.13400
H611        H  0.52805933  0.66193881  0.77273910     0.13400
O612        O  0.48199613  0.74050570  0.94335902    -0.57200
C613        C  0.46915517  0.75070402  0.55070338     0.75400
O614        O  0.40987330  0.82955078  0.00547433    -0.58400
C615        C  0.47378997  0.75509835  0.91048683     0.75400
C616        C  0.37757707  0.72323048  0.98232889     0.77800
Cd617      Cd  0.43764368  0.77403896  0.98067970     1.37500
O618        O  0.48437541  0.74584311  0.51871270    -0.57200
O619        O  0.37232026  0.75586651  0.97260976    -0.56000
C620        C  0.42166017  0.85060688  0.97955189     0.77700
O621        O  0.41008197  0.71475542  0.99038816    -0.58400
O622        O  0.43697752  0.76191577  0.54766856    -0.56900
O623        O  0.44853267  0.77802267  0.91026000    -0.56800
O624        O  0.43943498  0.83587535  0.95344601    -0.56000
N625        N  0.24515533  0.43530677  0.74226468    -0.02900
C626        C  0.26891647  0.44164105  0.71343624    -0.00300
C627        C  0.30330484  0.44601379  0.73000357    -0.23200
C628        C  0.30040637  0.44503489  0.76980149    -0.23400
C629        C  0.26426722  0.44056026  0.77680146    -0.00400
H630        H  0.32701397  0.45468753  0.71501839     0.13400
H631        H  0.32147851  0.45266134  0.79099128     0.13400
O632        O  0.24070831  0.49602549  0.53215670    -0.57200
C633        C  0.22734526  0.50917252  0.92109247     0.75400
O634        O  0.15408107  0.53165197  0.99648471    -0.58400
C635        C  0.23326860  0.51173641  0.56329593     0.75400
C636        C  0.26809499  0.61063418  0.98992969     0.77800
Cd637      Cd  0.21592825  0.55125656  0.99008685     1.37500
O638        O  0.23753438  0.49853559  0.95504434    -0.57200
O639        O  0.23800486  0.61445862  0.00552532    -0.56000
C640        C  0.13813936  0.56068154  0.98712790     0.77700
O641        O  0.27305999  0.58046214  0.97476046    -0.58400
O642        O  0.21101879  0.53916779  0.91924618    -0.56900
O643        O  0.21685543  0.54143367  0.55864953    -0.56800
O644        O  0.15843262  0.58636141  0.97683926    -0.56000
N645        N  0.86809810  0.46225975  0.73906160    -0.02900
C646        C  0.84416752  0.46575670  0.76824845    -0.00300
C647        C  0.80940230  0.46810049  0.75217806    -0.23200
C648        C  0.81205099  0.47003696  0.71237432    -0.23400
C649        C  0.84836195  0.46853577  0.70502099    -0.00400
H650        H  0.78536578  0.47420951  0.76767698     0.13400
H651        H  0.79026592  0.47692569  0.69149651     0.13400
O652        O  0.87677571  0.51416103  0.52127340    -0.57200
C653        C  0.87980378  0.53391097  0.91637175     0.75400
O654        O  0.87772412  0.62737117  0.46506908    -0.58400
C655        C  0.88641403  0.52752593  0.55382733     0.75400
C656        C  0.97821865  0.56614777  0.47806031     0.77800
Cd657      Cd  0.89908005  0.56375175  0.48063035     1.37500
O658        O  0.87805909  0.51881586  0.94947312    -0.57200
O659        O  0.96073803  0.59242157  0.49089164    -0.56000
C660        C  0.84862995  0.62415135  0.48307634     0.77700
O661        O  0.95902721  0.54010704  0.46607465    -0.58400
O662        O  0.89278242  0.56544908  0.91639689    -0.56900
O663        O  0.90360453  0.55699530  0.55218503    -0.56800
O664        O  0.84404860  0.59392013  0.49934945    -0.56000
N665        N  0.20882918  0.42230015  0.73757659    -0.02900
C666        C  0.18620107  0.41368619  0.76683447    -0.00300
C667        C  0.15144270  0.40936640  0.75157668    -0.23200
C668        C  0.15293760  0.41254760  0.71172807    -0.23400
C669        C  0.18861827  0.41885481  0.70335103    -0.00400
H670        H  0.12848675  0.39964557  0.76718833     0.13400
H671        H  0.13132912  0.40525844  0.69104227     0.13400
O672        O  0.22913031  0.31217704  0.56324434    -0.57200
C673        C  0.21167196  0.34110137  0.91681021     0.75400
O674        O  0.27825709  0.27986728  0.98872692    -0.58400
C675        C  0.21949787  0.34481249  0.56136676     0.75400
C676        C  0.13840931  0.27586753  0.98940094     0.77800
Cd677      Cd  0.21305808  0.29808255  0.98827910     1.37500
O678        O  0.21108286  0.30701905  0.91677503    -0.57200
O679        O  0.15395710  0.28035991  0.95752033    -0.56000
C680        C  0.27288238  0.24621994  0.99055703     0.77700
O681        O  0.15868650  0.27691776  0.01988622    -0.58400
O682        O  0.21542015  0.35560106  0.95003689    -0.56900
O683        O  0.20990141  0.35661113  0.52757734    -0.56800
O684        O  0.24007380  0.23679009  0.99119366    -0.56000
N685        N  0.90525926  0.45143390  0.74285479    -0.02900
C686        C  0.92831024  0.44617848  0.71317809    -0.00300
C687        C  0.96333378  0.44320968  0.72832383    -0.23200
C688        C  0.96189307  0.44437005  0.76810896    -0.23400
C689        C  0.92595301  0.44766038  0.77671857    -0.00400
H690        H  0.98676774  0.43546753  0.71262329     0.13400
H691        H  0.98402435  0.43740561  0.78851884     0.13400
O692        O  0.89393320  0.33261615  0.91739142    -0.57200
C693        C  0.90387292  0.37096086  0.56667840     0.75400
O694        O  0.89059778  0.25564022  0.98935074    -0.58400
C695        C  0.90140599  0.36580273  0.91827897     0.75400
C696        C  0.98338990  0.29087653  0.98649360     0.77800
Cd697      Cd  0.91074564  0.31936033  0.98760606     1.37500
O698        O  0.91862989  0.38212500  0.53607844    -0.57200
O699        O  0.96513391  0.29822744  0.95538251    -0.56000
C700        C  0.85734336  0.26271981  0.99159833     0.77700
O701        O  0.96710811  0.29474135  0.01787716    -0.58400
O702        O  0.88940075  0.34020125  0.56427842    -0.56900
O703        O  0.91020978  0.37788982  0.95170714    -0.56800
O704        O  0.84911866  0.29578002  0.99029237    -0.56000
C705        C  0.89479308  0.40103006  0.67274215    -0.19700
C706        C  0.91879631  0.43029256  0.67432744    -0.06300
C707        C  0.93646611  0.44063908  0.63992683     0.14600
C708        C  0.92928144  0.42187885  0.60520626    -0.19800
C709        C  0.90593905  0.39201514  0.60362211    -0.06300
C710        C  0.88830507  0.38159582  0.63811574     0.14600
C711        C  0.86317400  0.34972206  0.63932566    -0.23100
H712        H  0.88196377  0.39254276  0.69925516     0.15900
H713        H  0.94323456  0.43013833  0.57932838     0.15900
C714        C  0.96350316  0.47098257  0.63848732    -0.23100
H715        H  0.85097718  0.34652014  0.66828541     0.06100
H716        H  0.87820688  0.32463095  0.63395363     0.09300
H717        H  0.84079497  0.35330232  0.61693432     0.09300
H718        H  0.96600561  0.48620962  0.66595694     0.09300
H719        H  0.95543362  0.49029158  0.61463900     0.09300
H720        H  0.99044871  0.45994615  0.63229272     0.06100
C721        C  0.89160116  0.40079005  0.81230497    -0.19700
C722        C  0.91417290  0.43121672  0.81393793    -0.06300
C723        C  0.93012377  0.44127147  0.85049969     0.14600
C724        C  0.92459108  0.41982486  0.88381412    -0.19800
C725        C  0.90267520  0.38890734  0.88225379    -0.06300
C726        C  0.88485374  0.38009604  0.84610826     0.14600
C727        C  0.85819907  0.34953189  0.84284194    -0.23100
H728        H  0.87960026  0.39285237  0.78428223     0.15900
H729        H  0.93805043  0.42726739  0.91129189     0.15900
C730        C  0.95311477  0.47454244  0.85547416    -0.23100
H731        H  0.84493764  0.34840629  0.81312852     0.06100
H732        H  0.83676647  0.35317253  0.86409030     0.09300
H733        H  0.87209681  0.32342024  0.84857876     0.09300
H734        H  0.95368119  0.49137015  0.82844527     0.09300
H735        H  0.98117174  0.46666818  0.86448804     0.09300
H736        H  0.94217524  0.49150771  0.87858994     0.06100
C737        C  0.08354144  0.28509750  0.53718681    -0.19700
C738        C  0.09846116  0.27259420  0.99069922    -0.06300
C739        C  0.07968141  0.27871168  0.02527541     0.14600
C740        C  0.04197236  0.28199544  0.02287303    -0.19800
C741        C  0.02222834  0.28060917  0.98693417    -0.06300
C742        C  0.04632323  0.29096736  0.54017085     0.14600
C743        C  0.03316818  0.30383843  0.57866983    -0.23100
H744        H  0.10141904  0.29017851  0.56241618     0.15900
H745        H  0.02802887  0.28780255  0.04924860     0.15900
C746        C  0.09881374  0.28389006  0.06467269    -0.23100
H747        H  0.05535739  0.30523756  0.60149578     0.06100
H748        H  0.01244907  0.28499160  0.58957235     0.09300
H749        H  0.02171079  0.33131242  0.57500197     0.09300
H750        H  0.11656058  0.30795764  0.06372636     0.09300
H751        H  0.11496697  0.25958470  0.07295747     0.09300
H752        H  0.07957034  0.28819151  0.08815837     0.06100
C753        C  0.18073836  0.41064384  0.83901399    -0.19700
C754        C  0.19659004  0.39720758  0.80566480    -0.06300
C755        C  0.21734536  0.36529767  0.80927542     0.14600
C756        C  0.22262816  0.34843236  0.84612615    -0.19800
C757        C  0.20755483  0.36229464  0.87965087    -0.06300
C758        C  0.18625749  0.39390707  0.87600803     0.14600
C759        C  0.16775403  0.40916514  0.91042612    -0.23100
H760        H  0.16376436  0.43433698  0.83593723     0.15900
H761        H  0.23828311  0.32382887  0.84870565     0.15900
C762        C  0.23247240  0.34773448  0.77421007    -0.23100
H763        H  0.15112601  0.43309119  0.90187228     0.06100
H764        H  0.18810853  0.41771316  0.93313283     0.09300
H765        H  0.14969496  0.38854912  0.92300696     0.09300
H766        H  0.21043774  0.34243074  0.75202818     0.09300
H767        H  0.24569319  0.32164489  0.78202944     0.09300
H768        H  0.25319229  0.36542919  0.76159553     0.06100
C769        C  0.19362447  0.39706439  0.59517530    -0.19700
C770        C  0.21702980  0.36726182  0.59692391    -0.06300
C771        C  0.23472945  0.35803142  0.63328074     0.14600
C772        C  0.22700868  0.37741577  0.66682759    -0.19800
C773        C  0.20188048  0.40563896  0.66557314    -0.06300
C774        C  0.18557508  0.41608262  0.62888140     0.14600
C775        C  0.15892368  0.44660554  0.62423634    -0.23100
H776        H  0.18009574  0.40471188  0.56755262     0.15900
H777        H  0.23964266  0.36936348  0.69462293     0.15900
C778        C  0.26168032  0.32771646  0.63741608    -0.23100
H779        H  0.16774260  0.46569066  0.60125695     0.06100
H780        H  0.15639065  0.46195855  0.65148645     0.09300
H781        H  0.13196427  0.43584073  0.61502461     0.09300
H782        H  0.28322085  0.33171006  0.61620057     0.09300
H783        H  0.24799447  0.30153215  0.63237506     0.09300
H784        H  0.27484478  0.32639637  0.66722691     0.06100
C785        C  0.84527423  0.46517658  0.84121509    -0.19700
C786        C  0.85197583  0.48375604  0.80623290    -0.06300
C787        C  0.86019754  0.52092479  0.80831486     0.14600
C788        C  0.86988422  0.53588417  0.84447550    -0.19800
C789        C  0.86778350  0.51601782  0.87946847    -0.06300
C790        C  0.85352299  0.48050643  0.87791205     0.14600
C791        C  0.84682795  0.45841494  0.91426926    -0.23100
H792        H  0.83425484  0.43819431  0.83975408     0.15900
H793        H  0.87784766  0.56396621  0.84525388     0.15900
C794        C  0.85520881  0.54685190  0.77429425    -0.23100
H795        H  0.83528426  0.43157675  0.90712436     0.06100
H796        H  0.82734052  0.47251489  0.93241606     0.09300
H797        H  0.87253493  0.45384599  0.93143710     0.09300
H798        H  0.84488357  0.53397260  0.74716656     0.09300
H799        H  0.88110820  0.56081305  0.76916447     0.09300
H800        H  0.83501810  0.56749824  0.78147754     0.06100
C801        C  0.84661928  0.46707409  0.63281769    -0.19700
C802        C  0.86150579  0.48254988  0.66707965    -0.06300
C803        C  0.88492463  0.51265014  0.66347640     0.14600
C804        C  0.89174672  0.52651159  0.62621869    -0.19800
C805        C  0.87764769  0.51051394  0.59197695    -0.06300
C806        C  0.85500922  0.47989211  0.59543482     0.14600
C807        C  0.83924082  0.46044237  0.56031498    -0.23100
H808        H  0.82857084  0.44424252  0.63545653     0.15900
H809        H  0.90914638  0.54988566  0.62405829     0.15900
C810        C  0.90344554  0.53167567  0.69725507    -0.23100
H811        H  0.82247458  0.43704360  0.56890995     0.06100
H812        H  0.86130947  0.45000099  0.54273341     0.09300
H813        H  0.82169341  0.47893163  0.54218263     0.09300
H814        H  0.93288833  0.53332194  0.69285660     0.09300
H815        H  0.90051271  0.51798104  0.72552648     0.09300
H816        H  0.89279097  0.55949710  0.69869207     0.06100
C817        C  0.03910056  0.54269310  0.00768241    -0.19700
C818        C  0.02176912  0.57237863  0.98934199    -0.06300
C819        C  0.04305714  0.59896386  0.97111074     0.14600
C820        C  0.08084521  0.59449071  0.97093339    -0.19800
C821        C  0.09807228  0.56421216  0.98855772    -0.06300
C822        C  0.07662420  0.53820391  0.00778471     0.14600
C823        C  0.09255633  0.50562108  0.02911096    -0.23100
H824        H  0.01697848  0.51154179  0.45267897     0.15900
H825        H  0.09697772  0.61464959  0.95651108     0.15900
C826        C  0.02626505  0.63154998  0.95090366    -0.23100
H827        H  0.06413145  0.47645131  0.43485129     0.06100
H828        H  0.11255878  0.51422350  0.05221196     0.09300
H829        H  0.10483268  0.49989981  0.42376597     0.09300
H830        H  0.01236186  0.64803320  0.97242819     0.09300
H831        H  0.01100641  0.64100611  0.48070083     0.09300
H832        H  0.04682662  0.64890128  0.93724993     0.06100
C833        C  0.23484530  0.48688020  0.67230809    -0.19700
C834        C  0.25966712  0.45836843  0.67437329    -0.06300
C835        C  0.27756208  0.44922159  0.64016454     0.14600
C836        C  0.26881533  0.46763158  0.60481614    -0.19800
C837        C  0.24315983  0.49557544  0.60253450    -0.04700
C838        C  0.22676388  0.50596964  0.63726976     0.14600
C839        C  0.20010994  0.53654554  0.63799640    -0.23100
H840        H  0.22155590  0.49433435  0.69817435     0.15900
H841        H  0.28204187  0.45972501  0.57867485     0.15900
C842        C  0.30524283  0.41957894  0.63938019    -0.23100
H843        H  0.18973944  0.54025614  0.66760663     0.06100
H844        H  0.17655155  0.53112690  0.61776099     0.09300
H845        H  0.21338447  0.56207962  0.62932843     0.09300
H846        H  0.29738592  0.40037231  0.61599584     0.09300
H847        H  0.30791552  0.40397660  0.66722140     0.09300
H848        H  0.33193113  0.43128203  0.63289618     0.06100
C849        C  0.26379356  0.44100145  0.84944251    -0.19700
C850        C  0.25011113  0.45519487  0.81348973    -0.06300
C851        C  0.22848139  0.48655256  0.81356100     0.14600
C852        C  0.22041746  0.50213259  0.84919617    -0.19800
C853        C  0.23451807  0.48847475  0.88517572    -0.06300
C854        C  0.25639034  0.45706649  0.88523192     0.14600
C855        C  0.27307705  0.44067071  0.92235845    -0.23100
H856        H  0.28111388  0.41752933  0.84932823     0.15900
H857        H  0.20392759  0.52619995  0.84869479     0.15900
C858        C  0.21592831  0.50559880  0.77635666    -0.23100
H859        H  0.28914997  0.41627803  0.91652579     0.06100
H860        H  0.25167071  0.43246709  0.94236915     0.09300
H861        H  0.29151525  0.46035391  0.93694949     0.09300
H862        H  0.19696658  0.48828696  0.75929946     0.09300
H863        H  0.23972833  0.51277744  0.75924428     0.09300
H864        H  0.20137159  0.53095444  0.78203994     0.06100
C865        C  0.35861973  0.65936637  0.98620749    -0.19700
C866        C  0.34820753  0.69569674  0.98419878    -0.06300
C867        C  0.31089437  0.70406819  0.98517807     0.14600
C868        C  0.28541765  0.67590437  0.98792375    -0.19800
C869        C  0.29605268  0.63955427  0.98900467    -0.06300
C870        C  0.33336089  0.63137722  0.98848768     0.14600
C871        C  0.34724619  0.59322459  0.99141056    -0.23100
H872        H  0.38702424  0.65258033  0.98572530     0.15900
H873        H  0.25693047  0.68230202  0.98846258     0.15900
C874        C  0.29758645  0.74238012  0.98379612    -0.23100
H875        H  0.37721980  0.59219877  0.99356659     0.06100
H876        H  0.33844884  0.57814801  0.96492896     0.09300
H877        H  0.33713061  0.57969019  0.01797722     0.09300
H878        H  0.31025874  0.73648922  0.41844794     0.09300
H879        H  0.31005600  0.75748360  0.00866763     0.09300
H880        H  0.26779821  0.74383750  0.98589982     0.06100
C881        C  0.53989148  0.71871979  0.83762841    -0.19700
C882        C  0.52406413  0.73128501  0.80198336    -0.06300
C883        C  0.49111124  0.75034630  0.80223141     0.14600
C884        C  0.47559443  0.75734028  0.83800861    -0.19800
C885        C  0.49202383  0.74597972  0.87391789    -0.06300
C886        C  0.52505865  0.72672371  0.87361704     0.14600
C887        C  0.54552214  0.71519988  0.91074918    -0.23100
H888        H  0.56456738  0.70312381  0.83722505     0.15900
H889        H  0.45024660  0.77183386  0.83780508     0.15900
C890        C  0.47138561  0.76236460  0.76494639    -0.23100
H891        H  0.57159887  0.70215795  0.90467002     0.06100
H892        H  0.52935595  0.69545796  0.92729174     0.09300
H893        H  0.55172454  0.73906584  0.92897573     0.09300
H894        H  0.46641406  0.73895563  0.74569346     0.09300
H895        H  0.48757975  0.78305185  0.74997169     0.09300
H896        H  0.44483964  0.77464560  0.77051877     0.06100
C897        C  0.49710261  0.75356767  0.65957756    -0.19700
C898        C  0.52621568  0.72944477  0.66194681    -0.06300
C899        C  0.53669703  0.71266595  0.62730879     0.14600
C900        C  0.51746701  0.71996178  0.59173077    -0.19800
C901        C  0.48804498  0.74381713  0.58946193    -0.06300
C902        C  0.47816589  0.76132089  0.62398093     0.14600
C903        C  0.44849895  0.78907033  0.62374503    -0.23100
H904        H  0.48898132  0.76644511  0.68576599     0.15900
H905        H  0.52567346  0.70683973  0.56547720     0.15900
C906        C  0.56854611  0.68758314  0.62653977    -0.23100
H907        H  0.44616273  0.80141317  0.65288216     0.06100
H908        H  0.42209386  0.77640731  0.61587741     0.09300
H909        H  0.45427866  0.81101714  0.60250140     0.09300
H910        H  0.55913701  0.66035945  0.61795717     0.09300
H911        H  0.58378581  0.68543210  0.65508492     0.09300
H912        H  0.58765306  0.69772255  0.60475315     0.06100
C913        C  0.29367106  0.18106895  0.51606715    -0.19700
C914        C  0.30274329  0.21891477  0.99196517    -0.06300
C915        C  0.33829388  0.22657903  0.98043860     0.14600
C916        C  0.36411270  0.19873366  0.98045359    -0.19800
C917        C  0.35606772  0.16323743  0.99235299    -0.06300
C918        C  0.32090389  0.15598293  0.00546587     0.14600
C919        C  0.30911309  0.11748577  0.53581063    -0.23100
H920        H  0.26722727  0.17605906  0.52735580     0.15900
H921        H  0.39096237  0.20489625  0.97093109     0.15900
C922        C  0.34939215  0.26378941  0.96744625    -0.23100
H923        H  0.28141156  0.11804946  0.54693435     0.06100
H924        H  0.32815325  0.11160276  0.04635488     0.09300
H925        H  0.30973772  0.09601238  0.51365981     0.09300
H926        H  0.34690409  0.28285492  0.99181178     0.09300
H927        H  0.33211019  0.27277500  0.94179627     0.09300
H928        H  0.37789840  0.26460713  0.95869914     0.06100
C929        C  0.42220555  0.90995086  0.94505766    -0.19700
C930        C  0.41612357  0.89037426  0.97963281    -0.06300
C931        C  0.40397786  0.90200580  0.52160343     0.14600
C932        C  0.40433393  0.93997109  0.52230938    -0.19800
C933        C  0.41554553  0.96704686  0.97839156    -0.06300
C934        C  0.42210663  0.94777956  0.94383516     0.14600
C935        C  0.43000143  0.96635633  0.90557672    -0.23100
H936        H  0.42813973  0.89549894  0.91882793     0.15900
H937        H  0.40197865  0.95334198  0.54999088     0.15900
C938        C  0.39894389  0.88146878  0.55937881    -0.23100
H939        H  0.43309015  0.94688852  0.88165446     0.06100
H940        H  0.45566608  0.98170568  0.90862066     0.09300
H941        H  0.40741472  0.98468133  0.89652721     0.09300
H942        H  0.42382679  0.86625313  0.56800140     0.09300
H943        H  0.37576552  0.86267068  0.55581394     0.09300
H944        H  0.39333651  0.89972093  0.58378491     0.06100
C945        C  0.51971295  0.09661283  0.67227733    -0.19700
C946        C  0.54944232  0.07332146  0.67599240    -0.06300
C947        C  0.56053427  0.05526805  0.64243030     0.14600
C948        C  0.54021884  0.05918877  0.60700221    -0.19800
C949        C  0.50959569  0.08156892  0.60358787    -0.06300
C950        C  0.50029076  0.10180500  0.63648753     0.14600
C951        C  0.46959780  0.12840825  0.63485367    -0.23100
H952        H  0.51124772  0.11059149  0.69774769     0.15900
H953        H  0.54837485  0.04432030  0.58185970     0.15900
C954        C  0.59367063  0.03176729  0.64286337    -0.23100
H955        H  0.46675534  0.14190447  0.66329585     0.06100
H956        H  0.44371592  0.11443140  0.62758156     0.09300
H957        H  0.47461955  0.14969501  0.61260290     0.09300
H958        H  0.58563207  0.00356595  0.63670470     0.09300
H959        H  0.60943897  0.03233289  0.67113900     0.09300
H960        H  0.61180929  0.04132381  0.61986151     0.06100
C961        C  0.56011871  0.06670860  0.85164506    -0.19700
C962        C  0.54408565  0.07836519  0.81576671    -0.06300
C963        C  0.51012501  0.09567968  0.81542510     0.14600
C964        C  0.49319883  0.10077771  0.85088762    -0.19800
C965        C  0.50925131  0.08920765  0.88691977    -0.06300
C966        C  0.54377950  0.07272843  0.88725236     0.14600
C967        C  0.56320508  0.06006705  0.92459371    -0.23100
H968        H  0.58564668  0.05251030  0.85166012     0.15900
H969        H  0.46675043  0.11320786  0.85034073     0.15900
C970        C  0.49052800  0.10696127  0.77775016    -0.23100
H971        H  0.58973697  0.04772392  0.91903160     0.06100
H972        H  0.54671955  0.03950579  0.93959313     0.09300
H973        H  0.56841706  0.08326338  0.94408522     0.09300
H974        H  0.46329407  0.11790386  0.78282248     0.09300
H975        H  0.48706895  0.08345838  0.75830964     0.09300
H976        H  0.50592312  0.12842625  0.76304144     0.06100
C977        C  0.76458132  0.67885273  0.50600892    -0.19700
C978        C  0.77100809  0.71183307  0.48689578    -0.06300
C979        C  0.80320158  0.71571324  0.46619409     0.14600
C980        C  0.82794007  0.68688848  0.46587178    -0.19800
C981        C  0.82139624  0.65383299  0.48499679    -0.06300
C982        C  0.78880009  0.64988900  0.50514187     0.14600
C983        C  0.77858248  0.61533994  0.52574738    -0.23100
H984        H  0.73988474  0.67535709  0.52148234     0.15900
H985        H  0.85254987  0.69019411  0.45019930     0.15900
C986        C  0.81200338  0.74997852  0.44442331    -0.23100
H987        H  0.75206158  0.61737391  0.53947193     0.06100
H988        H  0.79901600  0.60869101  0.54946937     0.09300
H989        H  0.78028835  0.59197783  0.98818501     0.09300
H990        H  0.81294685  0.77288767  0.46489196     0.09300
H991        H  0.80586579  0.76853775  0.95364811     0.09300
H992        H  0.83864437  0.74848147  0.43086096     0.06100
C993        C  0.56292434  0.80072695  0.62798661    -0.19700
C994        C  0.57924645  0.78772576  0.66319488    -0.06300
C995        C  0.61336121  0.77091315  0.66244701     0.14600
C996        C  0.63070819  0.76871153  0.62682928    -0.19800
C997        C  0.61490970  0.78270660  0.59163661    -0.06300
C998        C  0.57951022  0.79722332  0.59207276     0.14600
C999        C  0.55911664  0.81000975  0.55536690    -0.23100
H1000       H  0.53713534  0.81434766  0.62881040     0.15900
H1001       H  0.65744143  0.75695888  0.62679499     0.15900
C1002       C  0.63274029  0.75741701  0.69941800    -0.23100
H1003       H  0.53161590  0.81966441  0.56151271     0.06100
H1004       H  0.55590716  0.78746345  0.53461109     0.09300
H1005       H  0.57373460  0.83268808  0.54159107     0.09300
H1006       H  0.61689939  0.73553084  0.71288905     0.09300
H1007       H  0.63653163  0.77979080  0.72032666     0.09300
H1008       H  0.65979632  0.74640125  0.69368051     0.06100
C1009       C  0.58509259  0.80326934  0.87341850    -0.19700
C1010       C  0.61564484  0.78095813  0.87712754    -0.06300
C1011       C  0.62513368  0.76054261  0.84443727     0.14600
C1012       C  0.60591485  0.76555468  0.80831084    -0.19800
C1013       C  0.57665493  0.78950694  0.80416457    -0.06300
C1014       C  0.56546334  0.80767569  0.83766052     0.14600
C1015       C  0.53302971  0.83215541  0.83675272    -0.23100
H1016       H  0.57689302  0.81833370  0.89842162     0.15900
H1017       H  0.61434257  0.75129891  0.78294451     0.15900
C1018       C  0.65497745  0.73303014  0.84734523    -0.23100
H1019       H  0.54187595  0.86013141  0.84289762     0.06100
H1020       H  0.51749137  0.83194627  0.80832509     0.09300
H1021       H  0.51440824  0.82333400  0.85960133     0.09300
H1022       H  0.64978181  0.71337230  0.87123426     0.09300
H1023       H  0.68141899  0.74642098  0.85309621     0.09300
H1024       H  0.65678248  0.71783463  0.81979851     0.06100
C1025       C  0.83319660  0.21300568  0.52424378    -0.19700
C1026       C  0.82976314  0.23380223  0.99563298    -0.06300
C1027       C  0.79534331  0.24043056  0.01055272     0.14600
C1028       C  0.77026769  0.21223627  0.01264082    -0.19800
C1029       C  0.77846252  0.17721036  0.00111888    -0.06300
C1030       C  0.80814317  0.18460990  0.52564334     0.14600
C1031       C  0.81501550  0.15454290  0.55511203    -0.23100
H1032       H  0.85676271  0.21255829  0.54416643     0.15900
H1033       H  0.74382160  0.21767139  0.02354454     0.15900
C1034       C  0.78476688  0.27678998  0.02536145    -0.23100
H1035       H  0.83991708  0.15920623  0.57359198     0.06100
H1036       H  0.81854427  0.12877655  0.53979111     0.09300
H1037       H  0.79204493  0.15232456  0.57481581     0.09300
H1038       H  0.78350404  0.29683003  0.00092031     0.09300
H1039       H  0.80458113  0.28553724  0.04858468     0.09300
H1040       H  0.75773656  0.27620364  0.03817728     0.06100
C1041       C  0.67873831  0.92923052  0.46525599    -0.19700
C1042       C  0.70199223  0.90897976  0.49061128    -0.06300
C1043       C  0.72696150  0.92463783  0.99218088     0.14600
C1044       C  0.72597782  0.96258564  0.99410978    -0.19800
C1045       C  0.70125246  0.98564131  0.49226405    -0.06300
C1046       C  0.67780805  0.96691773  0.46585792     0.14600
C1047       C  0.65182579  0.98630969  0.43762013    -0.23100
H1048       H  0.66023963  0.91544295  0.44515026     0.15900
H1049       H  0.75026090  0.97789334  0.98893533     0.15900
C1050       C  0.76221204  0.90648767  0.98449312    -0.23100
H1051       H  0.63781058  0.96754636  0.41703284     0.06100
H1052       H  0.66668825  0.00625055  0.41995563     0.09300
H1053       H  0.63067685  0.00000448  0.45383257     0.09300
H1054       H  0.75990347  0.89198258  0.95637382     0.09300
H1055       H  0.76943231  0.88724249  0.00872828     0.09300
H1056       H  0.78462592  0.92620519  0.98240504     0.06100
C1057       C  0.62602256  0.11424680  0.81728605    -0.19700
C1058       C  0.59608257  0.13732402  0.81594898    -0.06300
C1059       C  0.58536597  0.15285279  0.85110560     0.14600
C1060       C  0.60507449  0.14504507  0.88616678    -0.19800
C1061       C  0.63515483  0.12196322  0.88733732    -0.06300
C1062       C  0.64566277  0.10622984  0.85221557     0.14600
C1063       C  0.67677652  0.08021236  0.85112119    -0.23100
H1064       H  0.63419602  0.10204562  0.79065777     0.15900
H1065       H  0.59654608  0.15698975  0.91300168     0.15900
C1066       C  0.55264557  0.17666372  0.85307143    -0.23100
H1067       H  0.67979313  0.06932317  0.82135115     0.06100
H1068       H  0.67224958  0.05708268  0.87128745     0.09300
H1069       H  0.70242851  0.09400138  0.85964930     0.09300
H1070       H  0.53437776  0.16552995  0.87513740     0.09300
H1071       H  0.53679650  0.17873299  0.82491146     0.09300
H1072       H  0.56121672  0.20407094  0.86203150     0.06100
C1073       C  0.58131086  0.14712135  0.64108661    -0.19700
C1074       C  0.59739631  0.13542342  0.67691643    -0.06300
C1075       C  0.63127653  0.11799127  0.67714740     0.14600
C1076       C  0.64752460  0.11177378  0.64172906    -0.19800
C1077       C  0.63115414  0.12258389  0.60569735    -0.06300
C1078       C  0.59706050  0.14003993  0.60539330     0.14600
C1079       C  0.57671017  0.15116113  0.56803047    -0.23100
H1080       H  0.55587842  0.16148829  0.64113203     0.15900
H1081       H  0.67358396  0.09855465  0.64237757     0.15900
C1082       C  0.65143456  0.10711365  0.71449305    -0.23100
H1083       H  0.55010638  0.16327326  0.57376166     0.06100
H1084       H  0.57151783  0.12723896  0.54957103     0.09300
H1085       H  0.59242922  0.17156894  0.55189774     0.09300
H1086       H  0.63665306  0.08506777  0.72892992     0.09300
H1087       H  0.65459527  0.13070062  0.73383684     0.09300
H1088       H  0.67887951  0.09680954  0.70920651     0.06100
loop_ 
_geom_bond_atom_site_label_1 
_geom_bond_atom_site_label_2 
_geom_bond_distance 
_geom_bond_site_symmetry_2 
_ccdc_geom_bond_type 
N1            C5   1.369       .  A
N1            C2   1.366       .  A
N1           N41   1.433       .  S
C2            C3   1.382       .  A
C2          C514   1.486       .  S
C3            C4   1.369       .  A
C3            H6   1.082       .  S
C4            C5   1.380       .  A
C4            H7   1.083       .  S
C5          C530   1.491       .  S
O8           C11   1.266       .  A
O8         Cd557   2.445       .  S
C9          C533   1.495       .  S
C9           O18   1.268       .  A
C9           O14   1.262       .  A
O10          C16   1.268       .  A
O10         Cd13   2.530       .  S
C11         C517   1.485       .  S
C11          O19   1.267       .  A
C12        C1029   1.488       .  S
C12          O17   1.266       .  A
C12          O15   1.264   1_554  A
Cd13         O20   2.430   1_554  S
Cd13         O18   2.481       .  S
Cd13         O14   2.471       .  S
Cd13         O17   2.505       .  S
Cd13         O15   2.444   1_554  S
Cd13        O552   2.453   1_554  S
Cd13        O563   2.464   1_554  S
C16         C501   1.495   1_545  S
C16          O20   1.261   1_554  A
O19        Cd557   2.450       .  S
N21          C25   1.371       .  A
N21          C22   1.365       .  A
N21          N61   1.434       .  S
C22          C23   1.380       .  A
C22         C469   1.487       .  S
C23          C24   1.371       .  A
C23          H26   1.082       .  S
C24          C25   1.383       .  A
C24          H27   1.083       .  S
C25         C450   1.492       .  S
O28          C31   1.267       .  A
O28         Cd33   2.491   1_554  S
C29         C466   1.491       .  S
C29          O38   1.264       .  A
C29          O34   1.265       .  A
O30          C36   1.267       .  A
O30         Cd33   2.526       .  S
C31         C453   1.492       .  S
C31          O39   1.264       .  A
C32         C978   1.498       .  S
C32         O581   1.265       .  A
C32         O579   1.265       .  A
Cd33         O39   2.451   1_556  S
Cd33         O37   2.494       .  S
Cd33         O35   2.438       .  S
Cd33        O584   2.444   1_556  S
Cd33        O582   2.496       .  S
Cd33        O578   2.487       .  S
O34        Cd577   2.444       .  S
O35         C576   1.265       .  A
C36         C498   1.494       .  S
C36         O584   1.264   1_556  A
O37         C576   1.266       .  A
O38        Cd577   2.486       .  S
O40         C580   1.264       .  A
O40        Cd577   2.451       .  S
N41          C45   1.372       .  A
N41          C42   1.369       .  A
C42          C43   1.382       .  A
C42         C402   1.488       .  S
C43          C44   1.366       .  A
C43          H46   1.083       .  S
C44          C45   1.379       .  A
C44          H47   1.083       .  S
C45         C418   1.494       .  S
O48          C51   1.264       .  A
O48         Cd53   2.500       .  S
C49         C405   1.495       .  S
C49          O58   1.264       .  A
C49          O54   1.264       .  A
O50          C56   1.267       .  A
O50         Cd53   2.497       .  S
C51         C421   1.497       .  S
C51          O59   1.265       .  A
C52         C389   1.500   1_545  S
C52          O57   1.265       .  A
C52          O55   1.263       .  A
Cd53         O60   2.520       .  S
Cd53         O59   2.499       .  S
Cd53         O57   2.518       .  S
Cd53         O55   2.478       .  S
Cd53        O602   2.476       .  S
Cd53        O598   2.482       .  S
O54        Cd597   2.490   1_554  S
C56         C373   1.507       .  S
C56          O60   1.267       .  A
O58        Cd597   2.492   1_554  S
N61          C65   1.373       .  A
N61          C62   1.367       .  A
C62          C63   1.378       .  A
C62         C354   1.484       .  S
C63          C64   1.365       .  A
C63          H66   1.083       .  S
C64          C65   1.383       .  A
C64          H67   1.082       .  S
C65         C338   1.496       .  S
O68          C71   1.264       .  A
O68         Cd73   2.493       .  S
C69         C357   1.487       .  S
C69          O78   1.265       .  A
C69          O74   1.264       .  A
O70          C76   1.261       .  A
O70         Cd73   2.483       .  S
C71         C341   1.497       .  S
C71          O79   1.266       .  A
C72         C322   1.500       .  S
C72          O77   1.265       .  A
C72          O75   1.267       .  A
Cd73         O80   2.509       .  S
Cd73         O79   2.504       .  S
Cd73         O77   2.471       .  S
Cd73         O75   2.521       .  S
Cd73        O622   2.453       .  S
Cd73        O618   2.496       .  S
O74        Cd617   2.452   1_554  S
C76         C386   1.496       .  S
C76          O80   1.267       .  A
O78        Cd617   2.492   1_554  S
N81          C85   1.367       .  A
N81          C82   1.369       .  A
N81         N121   1.434       .  S
C82          C83   1.384       .  A
C82         C290   1.493       .  S
C83          C84   1.368       .  A
C83          H86   1.083       .  S
C84          C85   1.379       .  A
C84          H87   1.083       .  S
C85         C306   1.489       .  S
O88          C91   1.264       .  A
O88        Cd637   2.469   1_554  S
C89         C309   1.490       .  S
C89          O98   1.266       .  A
C89          O94   1.265       .  A
O90          C96   1.264       .  A
O90         Cd93   2.481       .  S
C91         C293   1.492       .  S
C91          O99   1.264       .  A
C92         C325   1.498       .  S
C92          O97   1.262       .  A
C92          O95   1.268       .  A
Cd93        O100   2.518       .  S
Cd93         O98   2.454       .  S
Cd93         O94   2.494       .  S
Cd93         O97   2.454       .  S
Cd93         O95   2.522       .  S
Cd93        O632   2.473       .  S
Cd93        O643   2.491       .  S
C96         C277   1.499       .  S
C96         O100   1.267       .  A
O99        Cd637   2.475   1_554  S
N101        C105   1.361       .  A
N101        C102   1.373       .  A
N101        N141   1.435       .  S
C102        C103   1.382       .  A
C102        C242   1.492       .  S
C103        C104   1.369       .  A
C103        H106   1.083       .  S
C104        C105   1.382       .  A
C104        H107   1.082       .  S
C105        C258   1.492       .  S
O108        C111   1.263       .  A
O108       Cd113   2.422   1_554  S
C109        C245   1.491       .  S
C109        O118   1.268       .  A
C109        O114   1.263       .  A
O110        C116   1.267       .  A
O110       Cd113   2.512       .  S
C111        C261   1.485       .  S
C111        O119   1.270       .  A
C112        C818   1.490   1_655  S
C112        O117   1.262       .  A
C112        O115   1.266       .  A
Cd113       O120   2.437   1_556  S
Cd113       O119   2.455   1_556  S
Cd113       O117   2.437       .  S
Cd113       O115   2.520       .  S
Cd113       O662   2.466       .  S
Cd113       O658   2.453       .  S
O114       Cd657   2.468       .  S
C116        C437   1.492       .  S
C116        O120   1.260   1_556  A
O118       Cd657   2.455       .  S
N121        C125   1.369       .  A
N121        C122   1.367       .  A
C122        C123   1.380       .  A
C122        C210   1.489       .  S
C123        C124   1.369       .  A
C123        H126   1.083       .  S
C124        C125   1.383       .  A
C124        H127   1.082       .  S
C125        C229   1.489       .  S
O128        C131   1.268       .  A
O128       Cd677   2.498   1_554  S
C129        C213   1.486       .  S
C129        O138   1.266       .  A
C129        O134   1.266       .  A
O130        C136   1.267       .  A
O130       Cd133   2.510       .  S
C131        C226   1.485       .  S
C131        O139   1.263       .  A
C132        C194   1.492       .  S
C132        O137   1.262       .  A
C132        O135   1.263       .  A
Cd133       O140   2.500       .  S
Cd133       O138   2.480       .  S
Cd133       O134   2.475       .  S
Cd133       O137   2.481       .  S
Cd133       O135   2.479       .  S
Cd133       O672   2.463       .  S
Cd133       O683   2.490       .  S
C136        C370   1.504       .  S
C136        O140   1.266       .  A
O139       Cd677   2.444   1_554  S
N141        C145   1.365       .  A
N141        C142   1.373       .  A
C142        C143   1.381       .  A
C142        C162   1.494       .  S
C143        C144   1.364       .  A
C143        H146   1.083       .  S
C144        C145   1.381       .  A
C144        H147   1.083       .  S
C145        C178   1.478       .  S
O148        C151   1.263       .  A
O148       Cd153   2.488       .  S
C149        C165   1.498       .  S
C149        O158   1.265       .  A
C149        O154   1.266       .  A
O150        C156   1.268       .  A
O150       Cd153   2.472       .  S
C151        C181   1.495       .  S
C151        O159   1.265       .  A
C152        C197   1.492   1_655  S
C152        O157   1.264       .  A
C152        O155   1.261       .  A
Cd153       O160   2.457       .  S
Cd153       O159   2.476       .  S
Cd153       O157   2.476       .  S
Cd153       O155   2.472       .  S
Cd153       O702   2.487       .  S
Cd153       O698   2.476       .  S
O154       Cd697   2.466   1_554  S
C156        C482   1.486       .  S
C156        O160   1.267       .  A
O158       Cd697   2.505   1_554  S
C161        C162   1.405       .  A
C161        C166   1.412       .  A
C161        H168   1.084       .  S
C162        C163   1.419       .  A
C163        C164   1.400       .  A
C163        C170   1.509       .  S
C164        C165   1.404       .  A
C164        H169   1.084       .  S
C165        C166   1.422       .  A
C166        C167   1.506       .  S
C167        H171   1.111       .  S
C167        H172   1.110       .  S
C167        H173   1.111       .  S
C170        H174   1.110       .  S
C170        H175   1.104       .  S
C170        H176   1.110       .  S
C177        C178   1.403       .  A
C177        C182   1.408       .  A
C177        H184   1.084       .  S
C178        C179   1.412       .  A
C179        C180   1.401       .  A
C179        C186   1.508       .  S
C180        C181   1.407       .  A
C180        H185   1.084       .  S
C181        C182   1.422       .  A
C182        C183   1.507       .  S
C183        H187   1.111       .  S
C183        H188   1.110       .  S
C183        H189   1.110       .  S
C186        H190   1.109       .  S
C186        H191   1.111       .  S
C186        H192   1.110       .  S
C193        C198   1.405       .  A
C193        C738   1.406       .  A
C193        H200   1.084       .  S
C194        C195   1.418       .  A
C194        C737   1.407       .  A
C195        C196   1.405       .  A
C195        C202   1.508       .  S
C196        C197   1.406       .  A
C196        H201   1.084       .  S
C197        C742   1.420       .  A
C198        C741   1.419       .  A
C198        C199   1.508       .  S
C199        H203   1.111       .  S
C199        H204   1.109       .  S
C199        H205   1.111   1_455  S
C202        H206   1.111       .  S
C202        H207   1.109       .  S
C202        H208   1.111       .  S
C209        C210   1.404       .  A
C209        C214   1.406       .  A
C209        H216   1.084       .  S
C210        C211   1.416       .  A
C211        C212   1.406       .  A
C211        C218   1.505       .  S
C212        C213   1.403       .  A
C212        H217   1.084       .  S
C213        C214   1.418       .  A
C214        C215   1.508       .  S
C215        H219   1.111       .  S
C215        H220   1.108       .  S
C215        H221   1.110       .  S
C218        H222   1.110       .  S
C218        H223   1.111       .  S
C218        H224   1.106       .  S
C225        C226   1.405       .  A
C225        C230   1.406       .  A
C225        H232   1.084       .  S
C226        C227   1.415       .  A
C227        C228   1.403       .  A
C227        C234   1.508       .  S
C228        C229   1.403       .  A
C228        H233   1.080       .  S
C229        C230   1.418       .  A
C230        C231   1.508       .  S
C231        H235   1.110       .  S
C231        H236   1.108       .  S
C231        H237   1.110       .  S
C234        H238   1.110       .  S
C234        H239   1.109       .  S
C234        H240   1.111       .  S
C241        C242   1.404       .  A
C241        C246   1.410       .  A
C241        H248   1.083       .  S
C242        C243   1.419       .  A
C243        C244   1.398       .  A
C243        C250   1.505       .  S
C244        C245   1.401       .  A
C244        H249   1.084       .  S
C245        C246   1.421       .  A
C246        C247   1.508       .  S
C247        H251   1.111       .  S
C247        H252   1.110       .  S
C247        H253   1.109       .  S
C250        H254   1.102       .  S
C250        H255   1.109       .  S
C250        H256   1.110       .  S
C257        C258   1.405       .  A
C257        C262   1.401       .  A
C257        H264   1.085       .  S
C258        C259   1.425       .  A
C259        C260   1.401       .  A
C259        C266   1.507       .  S
C260        C261   1.401       .  A
C260        H265   1.085       .  S
C261        C262   1.418       .  A
C262        C263   1.509       .  S
C263        H267   1.111       .  S
C263        H268   1.111       .  S
C263        H269   1.110       .  S
C266        H270   1.108       .  S
C266        H271   1.095       .  S
C266        H272   1.110       .  S
C273        C274   1.408       .  A
C273        C278   1.406       .  A
C273        H824   1.084       .  S
C274        C275   1.420       .  A
C274        C656   1.503   1_455  S
C275        C276   1.413       .  A
C275        C282   1.507       .  S
C276        C277   1.408       .  A
C276        H281   1.084       .  S
C277        C278   1.418       .  A
C278        C279   1.509       .  S
C279        H284   1.110       .  S
C279        H827   1.111       .  S
C279        H829   1.110       .  S
H280        C817   1.084       .  S
C282        H286   1.110       .  S
C282        H288   1.111       .  S
C282        H831   1.110       .  S
H283        C823   1.111       .  S
H285        C823   1.110       .  S
H287        C826   1.110       .  S
C289        C290   1.403       .  A
C289        C294   1.405       .  A
C289        H296   1.079       .  S
C290        C291   1.416       .  A
C291        C292   1.403       .  A
C291        C298   1.507       .  S
C292        C293   1.406       .  A
C292        H297   1.084       .  S
C293        C294   1.419       .  A
C294        C295   1.508       .  S
C295        H299   1.111       .  S
C295        H300   1.109       .  S
C295        H301   1.110       .  S
C298        H302   1.110       .  S
C298        H303   1.108       .  S
C298        H304   1.111       .  S
C305        C306   1.405       .  A
C305        C310   1.409       .  A
C305        H312   1.084       .  S
C306        C307   1.414       .  A
C307        C308   1.401       .  A
C307        C314   1.504       .  S
C308        C309   1.404       .  A
C308        H313   1.084       .  S
C309        C310   1.420       .  A
C310        C311   1.507       .  S
C311        H315   1.111       .  S
C311        H316   1.108       .  S
C311        H317   1.110       .  S
C314        H318   1.107       .  S
C314        H319   1.110       .  S
C314        H320   1.111       .  S
C321        C322   1.406       .  A
C321        C326   1.405       .  A
C321        H328   1.084       .  S
C322        C323   1.420       .  A
C323        C324   1.412       .  A
C323        C330   1.507       .  S
C324        C325   1.408       .  A
C324        H329   1.083       .  S
C325        C326   1.420       .  A
C326        C327   1.509       .  S
C327        H331   1.111       .  S
C327        H332   1.110       .  S
C327        H333   1.110       .  S
C330        H335   1.110       .  S
C330        H336   1.111       .  S
C330        H878   1.110       .  S
H334        C874   1.110       .  S
C337        C338   1.405       .  A
C337        C342   1.411       .  A
C337        H344   1.083       .  S
C338        C339   1.419       .  A
C339        C340   1.405       .  A
C339        C346   1.508       .  S
C340        C341   1.405       .  A
C340        H345   1.084       .  S
C341        C342   1.420       .  A
C342        C343   1.506       .  S
C343        H347   1.111       .  S
C343        H348   1.110       .  S
C343        H349   1.109       .  S
C346        H350   1.110       .  S
C346        H351   1.108       .  S
C346        H352   1.110       .  S
C353        C354   1.404       .  A
C353        C358   1.405       .  A
C353        H360   1.084       .  S
C354        C355   1.413       .  A
C355        C356   1.403       .  A
C355        C362   1.507       .  S
C356        C357   1.406       .  A
C356        H361   1.084       .  S
C357        C358   1.417       .  A
C358        C359   1.507       .  S
C359        H363   1.111       .  S
C359        H364   1.111       .  S
C359        H365   1.109       .  S
C362        H366   1.111       .  S
C362        H367   1.110       .  S
C362        H368   1.107       .  S
C369        C914   1.407   1_554  A
C369        C918   1.410       .  A
C369        H376   1.084       .  S
C370        C371   1.419       .  A
C370        C913   1.408       .  A
C371        C372   1.410       .  A
C371        C378   1.508       .  S
C372        C373   1.409       .  A
C372        H377   1.084       .  S
C373        C374   1.421       .  A
C374        C913   1.413       .  A
C374        C919   1.507       .  S
C375        C918   1.508       .  S
C375        H379   1.111       .  S
C375        H381   1.110   1_554  S
C375        H924   1.110       .  S
C378        H382   1.110       .  S
C378        H383   1.110       .  S
C378        H384   1.111       .  S
H380        C919   1.110       .  S
C385        C386   1.403       .  A
C385        C390   1.407       .  A
C385        H392   1.084       .  S
C386        C931   1.420       .  A
C387        C388   1.407       .  A
C387        C930   1.418   1_554  A
C387        C394   1.508       .  S
C388        C933   1.407   1_554  A
C388        H393   1.084       .  S
C389        C390   1.421       .  A
C389        C932   1.408       .  A
C390        C391   1.508       .  S
C391        H395   1.111       .  S
C391        H396   1.110       .  S
C391        H397   1.110       .  S
C394        H398   1.110       .  S
C394        H399   1.110       .  S
C394        H400   1.111       .  S
C401        C402   1.403       .  A
C401        C406   1.408       .  A
C401        H408   1.083       .  S
C402        C403   1.416       .  A
C403        C404   1.404       .  A
C403        C410   1.508       .  S
C404        C405   1.407       .  A
C404        H409   1.084       .  S
C405        C406   1.421       .  A
C406        C407   1.507       .  S
C407        H411   1.111       .  S
C407        H412   1.110       .  S
C407        H413   1.110       .  S
C410        H414   1.110       .  S
C410        H415   1.108       .  S
C410        H416   1.111       .  S
C417        C418   1.405       .  A
C417        C422   1.407       .  A
C417        H424   1.084       .  S
C418        C419   1.414       .  A
C419        C420   1.410       .  A
C419        C426   1.506       .  S
C420        C421   1.408       .  A
C420        H425   1.084       .  S
C421        C422   1.419       .  A
C422        C423   1.507       .  S
C423        H427   1.110       .  S
C423        H428   1.110       .  S
C423        H429   1.110       .  S
C426        H430   1.110       .  S
C426        H431   1.111       .  S
C426        H432   1.107       .  S
C433        C434   1.404   1_554  A
C433        C438   1.401       .  A
C433        H440   1.084       .  S
C434        C435   1.418       .  A
C434        C576   1.492       .  S
C435        C436   1.409       .  A
C435        C442   1.507       .  S
C436        C437   1.406       .  A
C436        H441   1.084       .  S
C437        C438   1.420   1_556  A
C438        C439   1.510       .  S
C439        H443   1.111       .  S
C439        H444   1.110       .  S
C439        H989   1.111   1_554  S
C442        H446   1.110   1_556  S
C442        H448   1.111       .  S
C442        H991   1.111       .  S
H445        C983   1.110       .  S
H447        C986   1.110       .  S
C449        C450   1.400       .  A
C449        C454   1.402       .  A
C449        H456   1.079       .  S
C450        C451   1.417       .  A
C451        C452   1.408       .  A
C451        C458   1.506       .  S
C452        C453   1.408       .  A
C452        H457   1.085       .  S
C453        C454   1.419       .  A
C454        C455   1.509       .  S
C455        H459   1.112       .  S
C455        H460   1.110       .  S
C455        H461   1.109       .  S
C458        H462   1.110       .  S
C458        H463   1.108       .  S
C458        H464   1.110       .  S
C465        C466   1.404       .  A
C465        C470   1.398       .  A
C465        H472   1.083       .  S
C466        C467   1.420       .  A
C467        C468   1.407       .  A
C467        C474   1.506       .  S
C468        C469   1.403       .  A
C468        H473   1.084       .  S
C469        C470   1.413       .  A
C470        C471   1.502       .  S
C471        H475   1.110       .  S
C471        H476   1.106       .  S
C471        H477   1.111       .  S
C474        H478   1.110       .  S
C474        H479   1.110       .  S
C474        H480   1.111       .  S
C481        C486   1.409       .  A
C481       C1026   1.408       .  A
C481        H488   1.084       .  S
C482        C483   1.415       .  A
C482       C1025   1.404       .  A
C483        C484   1.407       .  A
C483        C490   1.508       .  S
C484        C485   1.408       .  A
C484        H489   1.084       .  S
C485       C1030   1.417       .  A
C485        C556   1.492       .  S
C486       C1029   1.416   1_556  A
C486        C487   1.507       .  S
C487        H491   1.111       .  S
C487        H492   1.110       .  S
C487        H493   1.110   1_556  S
C490        H494   1.110       .  S
C490        H495   1.110       .  S
C490        H496   1.111       .  S
C497        C498   1.403   1_554  A
C497        C502   1.401       .  A
C497        H504   1.084       .  S
C498       C1043   1.418       .  A
C499        C500   1.414       .  A
C499       C1042   1.421       .  A
C499        C506   1.506       .  S
C500       C1045   1.406       .  A
C500        H505   1.084       .  S
C501        C502   1.420       .  A
C501       C1044   1.409   1_554  A
C502        C503   1.511       .  S
C503        H507   1.111       .  S
C503        H508   1.110   1_554  S
C503        H509   1.110       .  S
C506        H510   1.110       .  S
C506        H511   1.110       .  S
C506        H512   1.111       .  S
C513        C514   1.402       .  A
C513        C518   1.401       .  A
C513        H520   1.074       .  S
C514        C515   1.414       .  A
C515        C516   1.403       .  A
C515        C522   1.507       .  S
C516        C517   1.407       .  A
C516        H521   1.084       .  S
C517        C518   1.416       .  A
C518        C519   1.508       .  S
C519        H523   1.111       .  S
C519        H524   1.109       .  S
C519        H525   1.109       .  S
C522        H526   1.110       .  S
C522        H527   1.108       .  S
C522        H528   1.110       .  S
C529        C530   1.403       .  A
C529        C534   1.408       .  A
C529        H536   1.084       .  S
C530        C531   1.414       .  A
C531        C532   1.402       .  A
C531        C538   1.501       .  S
C532        C533   1.404       .  A
C532        H537   1.084       .  S
C533        C534   1.423       .  A
C534        C535   1.507       .  S
C535        H539   1.111       .  S
C535        H540   1.110       .  S
C535        H541   1.110       .  S
C538        H542   1.108       .  S
C538        H543   1.109       .  S
C538        H544   1.111       .  S
N545        C549   1.365       .  A
N545        C546   1.366       .  A
N545        N585   1.433       .  S
C546        C547   1.382       .  A
C546       C1058   1.487       .  S
C547        C548   1.370       .  A
C547        H550   1.083       .  S
C548        C549   1.380       .  A
C548        H551   1.083       .  S
C549       C1074   1.485       .  S
O552        C555   1.264       .  A
C553       C1077   1.487       .  S
C553        O562   1.260       .  A
C553        O558   1.266       .  A
O554        C560   1.262       .  A
O554       Cd557   2.436       .  S
C555       C1061   1.483       .  S
C555        O563   1.265       .  A
C556        O561   1.266       .  A
C556        O559   1.263       .  A
Cd557       O564   2.532       .  S
Cd557       O562   2.457       .  S
Cd557       O558   2.463       .  S
Cd557       O561   2.501       .  S
Cd557       O559   2.473       .  S
C560       C1045   1.491   1_545  S
C560        O564   1.268       .  A
N565        C569   1.368       .  A
N565        C566   1.370       .  A
N565        N605   1.434       .  S
C566        C567   1.383       .  A
C566       C1013   1.491       .  S
C567        C568   1.366       .  A
C567        H570   1.082       .  S
C568        C569   1.379       .  A
C568        H571   1.083       .  S
C569        C994   1.487       .  S
O572        C575   1.265       .  A
O572       Cd577   2.479       .  S
C573       C1010   1.492       .  S
C573        O582   1.264       .  A
C573        O578   1.265       .  A
O574        C580   1.267       .  A
O574       Cd577   2.533       .  S
C575        C997   1.495       .  S
C575        O583   1.267       .  A
Cd577       O583   2.474       .  S
Cd577       O581   2.506       .  S
Cd577       O579   2.467       .  S
C580       C1042   1.500       .  S
N585        C589   1.367       .  A
N585        C586   1.368       .  A
C586        C587   1.384       .  A
C586        C946   1.488       .  S
C587        C588   1.368       .  A
C587        H590   1.083       .  S
C588        C589   1.379       .  A
C588        H591   1.083       .  S
C589        C962   1.487       .  S
O592        C595   1.266       .  A
O592       Cd597   2.468       .  S
C593        C949   1.492       .  S
C593        O602   1.264       .  A
C593        O598   1.265       .  A
O594        C600   1.267       .  A
O594       Cd597   2.493       .  S
C595        C965   1.490       .  S
C595        O603   1.266       .  A
C596        C933   1.497   1_545  S
C596        O601   1.267   1_556  A
C596        O599   1.261       .  A
Cd597       O604   2.500       .  S
Cd597       O603   2.479       .  S
Cd597       O601   2.502   1_556  S
Cd597       O599   2.466       .  S
C600        C917   1.504       .  S
C600        O604   1.267       .  A
N605        C609   1.367       .  A
N605        C606   1.369       .  A
C606        C607   1.383       .  A
C606        C898   1.491       .  S
C607        C608   1.369       .  A
C607        H610   1.083       .  S
C608        C609   1.379       .  A
C608        H611   1.083       .  S
C609        C882   1.487       .  S
O612        C615   1.265       .  A
O612       Cd617   2.475       .  S
C613        C901   1.491       .  S
C613        O622   1.263       .  A
C613        O618   1.268       .  A
O614        C620   1.264   1_554  A
O614       Cd617   2.485   1_554  S
C615        C885   1.491       .  S
C615        O623   1.267       .  A
C616        C866   1.495       .  S
C616        O621   1.263       .  A
C616        O619   1.265       .  A
Cd617       O624   2.467       .  S
Cd617       O623   2.461       .  S
Cd617       O621   2.450       .  S
Cd617       O619   2.517       .  S
C620        C930   1.492       .  S
C620        O624   1.265       .  A
N625        C629   1.367       .  A
N625        C626   1.368       .  A
N625        N665   1.433       .  S
C626        C627   1.383       .  A
C626        C834   1.491       .  S
C627        C628   1.370       .  A
C627        H630   1.082       .  S
C628        C629   1.380       .  A
C628        H631   1.083       .  S
C629        C850   1.492       .  S
O632        C635   1.264       .  A
C633        C853   1.494       .  S
C633        O642   1.269       .  A
C633        O638   1.263       .  A
O634        C640   1.261       .  A
O634       Cd637   2.422       .  S
C635        C837   1.493       .  S
C635        O643   1.265       .  A
C636        C869   1.492       .  S
C636        O641   1.260       .  A
C636        O639   1.266   1_556  A
Cd637       O644   2.521       .  S
Cd637       O642   2.470       .  S
Cd637       O638   2.466       .  S
Cd637       O641   2.451       .  S
Cd637       O639   2.542   1_556  S
C640        C821   1.494       .  S
C640        O644   1.269       .  A
N645        C649   1.365       .  A
N645        C646   1.372       .  A
N645        N685   1.435       .  S
C646        C647   1.381       .  A
C646        C786   1.488       .  S
C647        C648   1.370       .  A
C647        H650   1.083       .  S
C648        C649   1.381       .  A
C648        H651   1.083       .  S
C649        C802   1.491       .  S
O652        C655   1.264       .  A
O652       Cd657   2.454       .  S
C653        C789   1.487       .  S
C653        O662   1.266       .  A
C653        O658   1.259       .  A
O654        C660   1.269       .  A
O654       Cd657   2.535       .  S
C655        C805   1.489       .  S
C655        O663   1.268       .  A
C656        O661   1.263       .  A
C656        O659   1.267       .  A
Cd657       O664   2.444       .  S
Cd657       O663   2.454       .  S
Cd657       O661   2.465       .  S
Cd657       O659   2.533       .  S
C660        C981   1.501       .  S
C660        O664   1.260       .  A
N665        C669   1.370       .  A
N665        C666   1.367       .  A
C666        C667   1.379       .  A
C666        C754   1.489       .  S
C667        C668   1.370       .  A
C667        H670   1.082       .  S
C668        C669   1.384       .  A
C668        H671   1.082       .  S
C669        C773   1.493       .  S
O672        C675   1.265       .  A
C673        C757   1.486       .  S
C673        O682   1.268       .  A
C673        O678   1.267       .  A
O674        C680   1.267       .  A
O674       Cd677   2.510       .  S
C675        C770   1.492       .  S
C675        O683   1.266       .  A
C676        C738   1.488       .  S
C676        O681   1.260   1_556  A
C676        O679   1.264       .  A
Cd677       O684   2.488       .  S
Cd677       O682   2.491       .  S
Cd677       O678   2.461       .  S
Cd677       O681   2.450   1_556  S
Cd677       O679   2.481       .  S
C680        C914   1.501       .  S
C680        O684   1.266       .  A
N685        C689   1.366       .  A
N685        C686   1.371       .  A
C686        C687   1.380       .  A
C686        C706   1.491       .  S
C687        C688   1.365       .  A
C687        H690   1.083       .  S
C688        C689   1.383       .  A
C688        H691   1.083       .  S
C689        C722   1.485       .  S
O692        C695   1.264       .  A
O692       Cd697   2.496       .  S
C693        C709   1.496       .  S
C693        O702   1.264       .  A
C693        O698   1.265       .  A
O694        C700   1.267       .  A
O694       Cd697   2.482       .  S
C695        C725   1.493       .  S
C695        O703   1.265       .  A
C696        C741   1.489   1_655  S
C696        O701   1.264   1_556  A
C696        O699   1.262       .  A
Cd697       O704   2.450       .  S
Cd697       O703   2.480       .  S
Cd697       O701   2.462   1_556  S
Cd697       O699   2.474       .  S
C700       C1026   1.491       .  S
C700        O704   1.266       .  A
C705        C706   1.404       .  A
C705        C710   1.409       .  A
C705        H712   1.084       .  S
C706        C707   1.419       .  A
C707        C708   1.402       .  A
C707        C714   1.509       .  S
C708        C709   1.406       .  A
C708        H713   1.084       .  S
C709        C710   1.421       .  A
C710        C711   1.507       .  S
C711        H715   1.111       .  S
C711        H716   1.109       .  S
C711        H717   1.111       .  S
C714        H718   1.105       .  S
C714        H719   1.109       .  S
C714        H720   1.110       .  S
C721        C722   1.406       .  A
C721        C726   1.409       .  A
C721        H728   1.084       .  S
C722        C723   1.415       .  A
C723        C724   1.402       .  A
C723        C730   1.508       .  S
C724        C725   1.406       .  A
C724        H729   1.084       .  S
C725        C726   1.419       .  A
C726        C727   1.506       .  S
C727        H731   1.111       .  S
C727        H732   1.110       .  S
C727        H733   1.110       .  S
C730        H734   1.108       .  S
C730        H735   1.110       .  S
C730        H736   1.110       .  S
C737        C742   1.405       .  A
C737        H744   1.084       .  S
C738        C739   1.420   1_556  A
C739        C740   1.402       .  A
C739        C746   1.510       .  S
C740        C741   1.405   1_554  A
C740        H745   1.084       .  S
C742        C743   1.509       .  S
C743        H747   1.111       .  S
C743        H748   1.111       .  S
C743        H749   1.110       .  S
C746        H750   1.110       .  S
C746        H751   1.111       .  S
C746        H752   1.111       .  S
C753        C754   1.405       .  A
C753        C758   1.408       .  A
C753        H760   1.084       .  S
C754        C755   1.415       .  A
C755        C756   1.405       .  A
C755        C762   1.505       .  S
C756        C757   1.403       .  A
C756        H761   1.084       .  S
C757        C758   1.417       .  A
C758        C759   1.507       .  S
C759        H763   1.111       .  S
C759        H764   1.109       .  S
C759        H765   1.110       .  S
C762        H766   1.110       .  S
C762        H767   1.111       .  S
C762        H768   1.107       .  S
C769        C770   1.407       .  A
C769        C774   1.405       .  A
C769        H776   1.084       .  S
C770        C771   1.418       .  A
C771        C772   1.405       .  A
C771        C778   1.508       .  S
C772        C773   1.403       .  A
C772        H777   1.079       .  S
C773        C774   1.418       .  A
C774        C775   1.507       .  S
C775        H779   1.109       .  S
C775        H780   1.108       .  S
C775        H781   1.110       .  S
C778        H782   1.110       .  S
C778        H783   1.109       .  S
C778        H784   1.111       .  S
C785        C786   1.403       .  A
C785        C790   1.408       .  A
C785        H792   1.083       .  S
C786        C787   1.416       .  A
C787        C788   1.397       .  A
C787        C794   1.504       .  S
C788        C789   1.401       .  A
C788        H793   1.084       .  S
C789        C790   1.422       .  A
C790        C791   1.508       .  S
C791        H795   1.111       .  S
C791        H796   1.110       .  S
C791        H797   1.109       .  S
C794        H798   1.104       .  S
C794        H799   1.110       .  S
C794        H800   1.110       .  S
C801        C802   1.405       .  A
C801        C806   1.404       .  A
C801        H808   1.084       .  S
C802        C803   1.422       .  A
C803        C804   1.400       .  A
C803        C810   1.504       .  S
C804        C805   1.402       .  A
C804        H809   1.084       .  S
C805        C806   1.419       .  A
C806        C807   1.507       .  S
C807        H811   1.111       .  S
C807        H812   1.110       .  S
C807        H813   1.110       .  S
C810        H814   1.109       .  S
C810        H815   1.095       .  S
C810        H816   1.110       .  S
C817        C818   1.403   1_554  A
C817        C822   1.401       .  A
C818        C819   1.417       .  A
C819        C820   1.411       .  A
C819        C826   1.506       .  S
C820        C821   1.408       .  A
C820        H825   1.083       .  S
C821        C822   1.421   1_556  A
C822        C823   1.511       .  S
C823        H828   1.110       .  S
C826        H830   1.110       .  S
C826        H832   1.111       .  S
C833        C834   1.403       .  A
C833        C838   1.404       .  A
C833        H840   1.072       .  S
C834        C835   1.416       .  A
C835        C836   1.405       .  A
C835        C842   1.508       .  S
C836        C837   1.408       .  A
C836        H841   1.083       .  S
C837        C838   1.417       .  A
C838        C839   1.508       .  S
C839        H843   1.109       .  S
C839        H844   1.111       .  S
C839        H845   1.110       .  S
C842        H846   1.110       .  S
C842        H847   1.108       .  S
C842        H848   1.110       .  S
C849        C850   1.405       .  A
C849        C854   1.408       .  A
C849        H856   1.084       .  S
C850        C851   1.416       .  A
C851        C852   1.402       .  A
C851        C858   1.502       .  S
C852        C853   1.403       .  A
C852        H857   1.084       .  S
C853        C854   1.422       .  A
C854        C855   1.508       .  S
C855        H859   1.111       .  S
C855        H860   1.109       .  S
C855        H861   1.110       .  S
C858        H862   1.106       .  S
C858        H863   1.109       .  S
C858        H864   1.111       .  S
C865        C866   1.404       .  A
C865        C870   1.402       .  A
C865        H872   1.084       .  S
C866        C867   1.420       .  A
C867        C868   1.413       .  A
C867        C874   1.507       .  S
C868        C869   1.407       .  A
C868        H873   1.084       .  S
C869        C870   1.417       .  A
C870        C871   1.509       .  S
C871        H875   1.111       .  S
C871        H876   1.109       .  S
C871        H877   1.110   1_556  S
C874        H879   1.110   1_556  S
C874        H880   1.111       .  S
C881        C882   1.403       .  A
C881        C886   1.406       .  A
C881        H888   1.084       .  S
C882        C883   1.413       .  A
C883        C884   1.403       .  A
C883        C890   1.504       .  S
C884        C885   1.406       .  A
C884        H889   1.083       .  S
C885        C886   1.420       .  A
C886        C887   1.507       .  S
C887        H891   1.111       .  S
C887        H892   1.110       .  S
C887        H893   1.110       .  S
C890        H894   1.110       .  S
C890        H895   1.107       .  S
C890        H896   1.111       .  S
C897        C898   1.403       .  A
C897        C902   1.405       .  A
C897        H904   1.077       .  S
C898        C899   1.417       .  A
C899        C900   1.406       .  A
C899        C906   1.507       .  S
C900        C901   1.405       .  A
C900        H905   1.084       .  S
C901        C902   1.419       .  A
C902        C903   1.508       .  S
C903        H907   1.111       .  S
C903        H908   1.110       .  S
C903        H909   1.110       .  S
C906        H910   1.109       .  S
C906        H911   1.108       .  S
C906        H912   1.111       .  S
C913        H920   1.084       .  S
C914        C915   1.419       .  A
C915        C916   1.411       .  A
C915        C922   1.507       .  S
C916        C917   1.409       .  A
C916        H921   1.083       .  S
C917        C918   1.421   1_556  A
C919        H923   1.111       .  S
C919        H925   1.110       .  S
C922        H926   1.110       .  S
C922        H927   1.111       .  S
C922        H928   1.111       .  S
C929        C930   1.405       .  A
C929        C934   1.406       .  A
C929        H936   1.084       .  S
C931        C932   1.411       .  A
C931        C938   1.508       .  S
C932        H937   1.083       .  S
C933        C934   1.422       .  A
C934        C935   1.509       .  S
C935        H939   1.111       .  S
C935        H940   1.110       .  S
C935        H941   1.110       .  S
C938        H942   1.109       .  S
C938        H943   1.110       .  S
C938        H944   1.111       .  S
C945        C946   1.402       .  A
C945        C950   1.404       .  A
C945        H952   1.080       .  S
C946        C947   1.416       .  A
C947        C948   1.404       .  A
C947        C954   1.508       .  S
C948        C949   1.408       .  A
C948        H953   1.084       .  S
C949        C950   1.419       .  A
C950        C951   1.507       .  S
C951        H955   1.111       .  S
C951        H956   1.111       .  S
C951        H957   1.110       .  S
C954        H958   1.110       .  S
C954        H959   1.108       .  S
C954        H960   1.110       .  S
C961        C962   1.402       .  A
C961        C966   1.405       .  A
C961        H968   1.084       .  S
C962        C963   1.414       .  A
C963        C964   1.405       .  A
C963        C970   1.505       .  S
C964        C965   1.406       .  A
C964        H969   1.084       .  S
C965        C966   1.419       .  A
C966        C967   1.507       .  S
C967        H971   1.111       .  S
C967        H972   1.110       .  S
C967        H973   1.110       .  S
C970        H974   1.111       .  S
C970        H975   1.110       .  S
C970        H976   1.107       .  S
C977        C978   1.404       .  A
C977        C982   1.404       .  A
C977        H984   1.084       .  S
C978        C979   1.420       .  A
C979        C980   1.412       .  A
C979        C986   1.507       .  S
C980        C981   1.408       .  A
C980        H985   1.084       .  S
C981        C982   1.423       .  A
C982        C983   1.510       .  S
C983        H987   1.111       .  S
C983        H988   1.111       .  S
C986        H990   1.110       .  S
C986        H992   1.111       .  S
C993        C994   1.403       .  A
C993        C998   1.405       .  A
C993       H1000   1.084       .  S
C994        C995   1.413       .  A
C995        C996   1.406       .  A
C995       C1002   1.506       .  S
C996        C997   1.408       .  A
C996       H1001   1.084       .  S
C997        C998   1.420       .  A
C998        C999   1.507       .  S
C999       H1003   1.111       .  S
C999       H1004   1.110       .  S
C999       H1005   1.111       .  S
C1002      H1006   1.108       .  S
C1002      H1007   1.110       .  S
C1002      H1008   1.110       .  S
C1009      C1010   1.405       .  A
C1009      C1014   1.403       .  A
C1009      H1016   1.084       .  S
C1010      C1011   1.418       .  A
C1011      C1012   1.409       .  A
C1011      C1018   1.507       .  S
C1012      C1013   1.405       .  A
C1012      H1017   1.082       .  S
C1013      C1014   1.417       .  A
C1014      C1015   1.508       .  S
C1015      H1019   1.110       .  S
C1015      H1020   1.108       .  S
C1015      H1021   1.110       .  S
C1018      H1022   1.110       .  S
C1018      H1023   1.110       .  S
C1018      H1024   1.111       .  S
C1025      C1030   1.406       .  A
C1025      H1032   1.084       .  S
C1026      C1027   1.418   1_556  A
C1027      C1028   1.402       .  A
C1027      C1034   1.509       .  S
C1028      C1029   1.404       .  A
C1028      H1033   1.084       .  S
C1030      C1031   1.507       .  S
C1031      H1035   1.111       .  S
C1031      H1036   1.110       .  S
C1031      H1037   1.111       .  S
C1034      H1038   1.110       .  S
C1034      H1039   1.110       .  S
C1034      H1040   1.111       .  S
C1041      C1042   1.406       .  A
C1041      C1046   1.401       .  A
C1041      H1048   1.084       .  S
C1043      C1044   1.413       .  A
C1043      C1050   1.507       .  S
C1044      H1049   1.083       .  S
C1045      C1046   1.416       .  A
C1046      C1047   1.509       .  S
C1047      H1051   1.111       .  S
C1047      H1052   1.109   1_565  S
C1047      H1053   1.109   1_565  S
C1050      H1054   1.110       .  S
C1050      H1055   1.110   1_556  S
C1050      H1056   1.111       .  S
C1057      C1058   1.402       .  A
C1057      C1062   1.400       .  A
C1057      H1064   1.079       .  S
C1058      C1059   1.415       .  A
C1059      C1060   1.403       .  A
C1059      C1066   1.507       .  S
C1060      C1061   1.407       .  A
C1060      H1065   1.085       .  S
C1061      C1062   1.414       .  A
C1062      C1063   1.508       .  S
C1063      H1067   1.112       .  S
C1063      H1068   1.110       .  S
C1063      H1069   1.109       .  S
C1066      H1070   1.110       .  S
C1066      H1071   1.108       .  S
C1066      H1072   1.110       .  S
C1073      C1074   1.402       .  A
C1073      C1078   1.405       .  A
C1073      H1080   1.084       .  S
C1074      C1075   1.414       .  A
C1075      C1076   1.399       .  A
C1075      C1082   1.501       .  S
C1076      C1077   1.403       .  A
C1076      H1081   1.084       .  S
C1077      C1078   1.421       .  A
C1078      C1079   1.508       .  S
C1079      H1083   1.111       .  S
C1079      H1084   1.110       .  S
C1079      H1085   1.110       .  S
C1082      H1086   1.106       .  S
C1082      H1087   1.110       .  S
C1082      H1088   1.111       .  S
