geometry optimzed in LAMMPS
_audit_creation_date              2020-11-30 
_audit_creation_method            'lammps2cif' 
_symmetry_space_group_name_H-M    'P1' 
_symmetry_Int_Tables_number       1 
_symmetry_cell_setting            triclinic 
loop_ 
_symmetry_equiv_pos_as_xyz 
  x,y,z 
_cell_length_a                    29.09024557 
_cell_length_b                    32.28076410556727 
_cell_length_c                    45.681266682007944 
_cell_angle_alpha                 89.99250683164465 
_cell_angle_beta                  89.95746100353013 
_cell_angle_gamma                 90.01311413982974 
loop_ 
_atom_site_label 
_atom_site_type_symbol 
_atom_site_fract_x 
_atom_site_fract_y 
_atom_site_fract_z 
_atom_site_charge 
O1          O  0.97502813  0.93326264  0.02727716    -0.86700
C2          C  0.91711943  0.04789059  0.02150565     0.89400
Mg3        Mg  0.04474326  0.92360232  0.04088325     1.58100
O4          O  0.94459168  0.00265878  0.95380042    -0.86400
O5          O  0.93087563  0.91955020  0.98964239    -0.73700
C6          C  0.16573632  0.05994292  0.96370091     0.94400
O7          O  0.99542137  0.01363625  0.06644562    -0.73500
O8          O  0.16713615  0.04149320  0.98828027    -0.81000
Mg9        Mg  0.93358617  0.97258278  0.05473634     1.58000
C10         C  0.01142047  0.07073890  0.89021638     0.94300
O11         O  0.86834912  0.93345107  0.04813506    -0.79300
H12         H  0.93872057  0.95572292  0.92551576    -0.04600
C13         C  0.03914676  0.08389402  0.98619045     0.89300
O14         O  0.06871278  0.91889852  0.99310634    -0.73800
O15         O  0.91838159  0.01008240  0.01726499    -0.86600
O16         O  0.97495995  0.07202942  0.90565455    -0.79400
C17         C  0.84304124  0.06536313  0.95117416     0.94500
C18         C  0.83336067  0.93212791  0.03143610     0.94300
Mg19       Mg  0.06541390  0.01951243  0.94062131     1.58000
O20         O  0.13083469  0.05851896  0.94692608    -0.79300
O21         O  0.00346496  0.97849203  0.92916578    -0.73600
O22         O  0.84181893  0.03331429  0.96747709    -0.79400
O23         O  0.94956862  0.93442756  0.09518543    -0.81100
O24         O  0.15736673  0.95960127  0.02828597    -0.79400
C25         C  0.96095338  0.97847427  0.93556452     0.88700
O26         O  0.08067150  0.98242936  0.97820746    -0.86600
O27         O  0.02404725  0.05916159  0.96789491    -0.86700
O28         O  0.06798018  0.07300911  0.00560420    -0.73700
Mg29       Mg  0.88952729  0.97867864  0.97992343     1.58000
O30         O  0.88035791  0.08032794  0.94126091    -0.81100
H31         H  0.97265221  0.87716474  0.00880873    -0.04800
O32         O  0.05430904  0.98984071  0.04165197    -0.86400
H33         H  0.06010237  0.03655727  0.07012869    -0.04700
H34         H  0.09387972  0.93330239  0.95294445    -0.04800
C35         C  0.03791642  0.01384206  0.05999738     0.88700
C36         C  0.95986499  0.90860563  0.00894919     0.89300
C37         C  0.08219746  0.94465656  0.97393199     0.89400
H38         H  0.02637842  0.11534302  0.98623262    -0.04800
O39         O  0.93056818  0.07358134  0.00225459    -0.73800
Mg40       Mg  0.10938506  0.01397712  0.01551790     1.58000
H41         H  0.90564522  0.05933999  0.04251392    -0.04800
C42         C  0.98742594  0.92051788  0.10496406     0.94300
O43         O  0.11863879  0.91233172  0.05415883    -0.81100
C44         C  0.15605009  0.92755306  0.04459828     0.94400
O45         O  0.83168812  0.95104736  0.00704371    -0.81000
Mg46       Mg  0.95431492  0.06879450  0.95439761     1.58200
O47         O  0.02399445  0.91966632  0.08961465    -0.79400
O48         O  0.04934826  0.05704352  0.90001358    -0.81100
C49         C  0.00031396  0.20667315  0.64654635     0.47100
H50         H  0.99952463  0.17224306  0.64694162    -0.01900
C51         C  0.00223817  0.28762762  0.64560689     0.47200
H52         H  0.00301356  0.32205677  0.64519110    -0.01900
C53         C  0.00243100  0.22666747  0.67704269    -0.15600
C54         C  0.04166116  0.22480588  0.63005545    -0.15300
C55         C  0.95824544  0.22640733  0.63180812    -0.15700
C56         C  0.00332637  0.26906670  0.67655521    -0.15700
C57         C  0.04271775  0.26717391  0.62953665    -0.15200
C58         C  0.95924766  0.26878228  0.63139614    -0.15600
O59         O  0.02604656  0.43421878  0.96818796    -0.86700
C60         C  0.08187697  0.54940977  0.97433264     0.89400
Mg61       Mg  0.95663933  0.42347270  0.95473916     1.58100
O62         O  0.05492574  0.50371748  0.04201183    -0.86400
O63         O  0.06993424  0.42082294  0.00599344    -0.73700
C64         C  0.83208001  0.55628810  0.03307427     0.94400
O65         O  0.00351604  0.51475651  0.92997825    -0.73500
O66         O  0.83070788  0.53740188  0.00864239    -0.81000
Mg67       Mg  0.06649538  0.47463909  0.94096559     1.58000
C68         C  0.98748537  0.57157117  0.10549775     0.94300
O69         O  0.13270149  0.43664326  0.94711844    -0.79300
H70         H  0.06235915  0.45754703  0.07077823    -0.04600
C71         C  0.95790081  0.58327940  0.00989020     0.89300
O72         O  0.93330627  0.41772220  0.00267685    -0.73800
O73         O  0.08123262  0.51161703  0.97862618    -0.86600
O74         O  0.02361758  0.57319456  0.08980440    -0.79400
C75         C  0.15532815  0.56741788  0.04493028     0.94500
C76         C  0.16752645  0.43529922  0.96397121     0.94300
Mg77       Mg  0.93406838  0.51855686  0.05565379     1.58000
O78         O  0.86746146  0.55604374  0.04947373    -0.79300
O79         O  0.99703194  0.47893572  0.06723780    -0.73600
O80         O  0.15731319  0.53521607  0.02881569    -0.79400
O81         O  0.05100675  0.43727371  0.90007649    -0.81100
O82         O  0.84324945  0.45567976  0.96842066    -0.79400
C83         C  0.03943601  0.47961282  0.06060304     0.88700
O84         O  0.91953987  0.48074719  0.01813706    -0.86600
O85         O  0.97416991  0.55877607  0.02792996    -0.86700
O86         O  0.92880543  0.57184004  0.99078819    -0.73700
Mg87       Mg  0.11036110  0.48030557  0.01592933     1.58000
O88         O  0.11761303  0.58229912  0.05424979    -0.81100
H89         H  0.02914354  0.37802041  0.98645224    -0.04800
O90         O  0.94511730  0.48939191  0.95455530    -0.86400
H91         H  0.93839906  0.53677018  0.92670201    -0.04700
H92         H  0.90852665  0.43090419  0.04315630    -0.04800
C93         C  0.96103506  0.51413860  0.93651169     0.88700
C94         C  0.04144091  0.40962599  0.98647605     0.89300
C95         C  0.91943086  0.44287064  0.02216618     0.89400
H96         H  0.96969954  0.61503852  0.00985326    -0.04800
O97         O  0.06755099  0.57491412  0.99341261    -0.73800
Mg98       Mg  0.88930780  0.51163298  0.98101092     1.58000
H99         H  0.09337399  0.56096443  0.95335521    -0.04800
C100        C  0.01316975  0.42330320  0.89030200     0.94300
O101        O  0.88325337  0.41043919  0.94157810    -0.81100
C102        C  0.84551919  0.42402996  0.95175738     0.94400
O103        O  0.16857552  0.45342544  0.98868711    -0.81000
Mg104      Mg  0.04390596  0.56974966  0.04117018     1.58200
O105        O  0.97693844  0.42130180  0.90590956    -0.79400
O106        O  0.94965575  0.55707926  0.09606451    -0.81100
C107        C  0.99803085  0.78652050  0.34991266     0.47100
H108        H  0.99820188  0.82095567  0.34958810    -0.01900
C109        C  0.99774762  0.70552925  0.35074045     0.47200
H110        H  0.99759907  0.67109283  0.35111696    -0.01900
C111        C  0.99616994  0.76661509  0.31936598    -0.15600
C112        C  0.04057707  0.76733254  0.36451809    -0.15300
C113        C  0.95711822  0.76772318  0.36653433    -0.15700
C114        C  0.99620909  0.72421224  0.31981246    -0.15700
C115        C  0.04038667  0.72493874  0.36501147    -0.15200
C116        C  0.95695978  0.72533461  0.36689829    -0.15600
O117        O  0.52444848  0.93459124  0.46843702    -0.86700
C118        C  0.58025705  0.04982408  0.47252564     0.89400
Mg119      Mg  0.45461143  0.92400931  0.45541642     1.58100
O120        O  0.55423231  0.00604358  0.54089104    -0.86400
O121        O  0.56900501  0.92216813  0.50608779    -0.73700
C122        C  0.33164253  0.05929430  0.53197764     0.94400
O123        O  0.50224103  0.01394975  0.42902630    -0.73500
O124        O  0.33032473  0.04023082  0.50764330    -0.81000
Mg125      Mg  0.56509108  0.97379937  0.44043762     1.58000
C126        C  0.48741548  0.07484008  0.60402337     0.94300
O127        O  0.63147647  0.93538426  0.44705094    -0.79300
H128        H  0.56157654  0.96014887  0.56988273    -0.04600
C129        C  0.45724791  0.08521806  0.50848135     0.89300
O130        O  0.43166288  0.91948243  0.50343234    -0.73800
O131        O  0.58025205  0.01212676  0.47733018    -0.86600
O132        O  0.52346092  0.07634544  0.58821114    -0.79400
C133        C  0.65470222  0.07023682  0.54226121     0.94500
C134        C  0.66646113  0.93478074  0.46385359     0.94300
Mg135      Mg  0.43335443  0.02136686  0.55485702     1.58000
O136        O  0.36684815  0.05899908  0.54853534    -0.79300
O137        O  0.49633793  0.98176217  0.56641161    -0.73600
O138        O  0.65647763  0.03752772  0.52665253    -0.79400
O139        O  0.54867104  0.93534511  0.40029568    -0.81100
O140        O  0.34166200  0.95796810  0.46878367    -0.79400
C141        C  0.53870640  0.98220923  0.55965329     0.88700
O142        O  0.41826451  0.98303863  0.51788813    -0.86600
O143        O  0.47338074  0.06091356  0.52669123    -0.86700
O144        O  0.42823559  0.07358443  0.48941280    -0.73700
Mg145      Mg  0.60955805  0.98200222  0.51498429     1.58000
O146        O  0.61712345  0.08517349  0.55176677    -0.81100
H147        H  0.52773686  0.87889789  0.48745807    -0.04800
O148        O  0.44392673  0.99000138  0.45438806    -0.86400
H149        H  0.43730485  0.03640737  0.42571979    -0.04700
H150        H  0.40687810  0.93404493  0.54366358    -0.04800
C151        C  0.45984722  0.01395570  0.43581901     0.88700
C152        C  0.54007918  0.91048222  0.48696394     0.89300
C153        C  0.41785460  0.94529425  0.52249101     0.89400
H154        H  0.46921701  0.11692377  0.50821044    -0.04800
O155        O  0.56599087  0.07574115  0.49136842    -0.73800
Mg156      Mg  0.38841759  0.01344350  0.48045605     1.58000
H157        H  0.59114956  0.06091826  0.45129459    -0.04800
C158        C  0.51030493  0.92215290  0.39081940     0.94300
O159        O  0.38071270  0.91121964  0.44272607    -0.81100
C160        C  0.34325138  0.92576709  0.45268703     0.94400
O161        O  0.66765165  0.95419966  0.48807302    -0.81000
Mg162      Mg  0.54319286  0.07202017  0.53940284     1.58200
O163        O  0.47424930  0.92100170  0.40661615    -0.79400
O164        O  0.44951437  0.06030322  0.59478179    -0.81100
C165        C  0.50127031  0.70634051  0.14709875     0.47100
H166        H  0.50088390  0.67190390  0.14731287    -0.01900
C167        C  0.50208994  0.78732062  0.14664795     0.47200
H168        H  0.50245090  0.82176073  0.14649772    -0.01900
C169        C  0.50265296  0.72595349  0.17772632    -0.15600
C170        C  0.54272476  0.72508601  0.13100904    -0.15300
C171        C  0.45905720  0.72588656  0.13232454    -0.15700
C172        C  0.50298082  0.76835132  0.17745760    -0.15700
C173        C  0.54312969  0.76747821  0.13077904    -0.15200
C174        C  0.45946533  0.76828640  0.13212346    -0.15600
O175        O  0.47469022  0.43535018  0.52850864    -0.86700
C176        C  0.41878005  0.55070460  0.52422898     0.89400
Mg177      Mg  0.54425255  0.42473249  0.54190046     1.58100
O178        O  0.44569897  0.50696378  0.45599241    -0.86400
O179        O  0.43055244  0.42297470  0.49065574    -0.73700
C180        C  0.66752978  0.56185984  0.46712803     0.94400
O181        O  0.49619702  0.51456076  0.56865807    -0.73500
O182        O  0.66839967  0.54258084  0.49138234    -0.81000
Mg183      Mg  0.43377963  0.47454694  0.55641848     1.58000
C184        C  0.51317989  0.57601866  0.39316545     0.94300
O185        O  0.36786314  0.43627132  0.54944901    -0.79300
H186        H  0.43928776  0.46098042  0.42697616    -0.04600
C187        C  0.54115212  0.58643580  0.48939080     0.89300
O188        O  0.56818439  0.42094907  0.49405760    -0.73800
O189        O  0.41931620  0.51300523  0.51945618    -0.86600
O190        O  0.47680796  0.57712141  0.40870292    -0.79400
C191        C  0.34484877  0.57092583  0.45443012     0.94500
C192        C  0.33294608  0.43565249  0.53265656     0.94300
Mg193      Mg  0.56679157  0.52315455  0.44294447     1.58000
O194        O  0.63284845  0.56127617  0.45011483    -0.79300
O195        O  0.50426496  0.48314412  0.43086409    -0.73600
O196        O  0.34333149  0.53838208  0.47020828    -0.79400
O197        O  0.44924271  0.43568758  0.59638107    -0.81100
O198        O  0.65705720  0.45981686  0.52975210    -0.79400
C199        C  0.46177568  0.48322260  0.43735798     0.88700
O200        O  0.58134532  0.48472444  0.47999271    -0.86600
O201        O  0.52583397  0.56235523  0.47074201    -0.86700
O202        O  0.56966324  0.57471033  0.50874373    -0.73700
Mg203      Mg  0.39014432  0.48285999  0.48174575     1.58000
O204        O  0.38229036  0.58576273  0.44459432    -0.81100
H205        H  0.47162213  0.37968803  0.50943215    -0.04800
O206        O  0.55455573  0.49075116  0.54340090    -0.86400
H207        H  0.56127689  0.53645705  0.57260135    -0.04700
H208        H  0.59368031  0.43605368  0.45410591    -0.04800
C209        C  0.53866340  0.51438060  0.56215355     0.88700
C210        C  0.45926710  0.41126378  0.50989701     0.89300
C211        C  0.58217469  0.44702988  0.47523339     0.89400
H212        H  0.52882731  0.61802203  0.48980826    -0.04800
O213        O  0.43271432  0.57674241  0.50535580    -0.73800
Mg214      Mg  0.61007176  0.51494844  0.51784761     1.58000
H215        H  0.40757402  0.56172062  0.54541102    -0.04800
C216        C  0.48717810  0.42175668  0.60597150     0.94300
O217        O  0.61791422  0.41226743  0.55507689    -0.81100
C218        C  0.65542351  0.42736799  0.54560417     0.94400
O219        O  0.33174389  0.45509972  0.50845440    -0.81000
Mg220      Mg  0.45621754  0.57299770  0.45743311     1.58200
O221        O  0.52355223  0.42060499  0.59047410    -0.79400
O222        O  0.55115288  0.56208974  0.40278313    -0.81100
C223        C  0.49938552  0.28681476  0.85027607     0.47100
H224        H  0.50064119  0.32123523  0.85058218    -0.01900
C225        C  0.49644258  0.20586801  0.84946895     0.47200
H226        H  0.49518164  0.17144864  0.84912164    -0.01900
C227        C  0.49704395  0.26818926  0.81941101    -0.15600
C228        C  0.54124558  0.26595838  0.86449446    -0.15300
C229        C  0.45766983  0.26842694  0.86627255    -0.15700
C230        C  0.49552304  0.22582025  0.81895393    -0.15700
C231        C  0.53964533  0.22360380  0.86411533    -0.15200
C232        C  0.45620472  0.22605156  0.86589008    -0.15600
C233        C  0.49434645  0.33254102  0.74253966     0.18700
C234        C  0.50543940  0.31013300  0.71725138    -0.10400
C235        C  0.50398719  0.32937555  0.68986895    -0.11300
C236        C  0.49163929  0.37119598  0.68764877     0.20300
C237        C  0.48068361  0.39370018  0.71294354    -0.13300
C238        C  0.48199439  0.37438325  0.74036020    -0.11600
C239        C  0.49011020  0.39075902  0.65937393     0.01200
C240        C  0.48887279  0.40575659  0.63522790    -0.31600
C241        C  0.49534900  0.31226950  0.77056427     0.02600
C242        C  0.49620280  0.29331139  0.79327551    -0.33300
H243        H  0.51524485  0.27783438  0.71871407     0.13700
H244        H  0.51250321  0.31167904  0.67045519     0.13500
H245        H  0.47107192  0.42605453  0.71145915     0.13300
H246        H  0.47334530  0.39198567  0.75978856     0.12400
C247        C  0.50806047  0.62600700  0.31106761     0.18700
C248        C  0.48939477  0.66578094  0.30787600    -0.10400
C249        C  0.48806923  0.68461936  0.28030032    -0.11300
C250        C  0.50535000  0.66378504  0.25572972     0.20300
C251        C  0.52398013  0.62399394  0.25889037    -0.13300
C252        C  0.52533128  0.60515117  0.28649298    -0.11600
C253        C  0.50436251  0.68355991  0.22744545     0.01200
C254        C  0.50350867  0.70174708  0.20437168    -0.31600
C255        C  0.50986210  0.60692136  0.33959247     0.02600
C256        C  0.51138066  0.59204980  0.36382660    -0.33300
H257        H  0.47602045  0.68226387  0.32670332     0.13700
H258        H  0.47371872  0.71544604  0.27815008     0.13500
H259        H  0.53755425  0.60762850  0.24007202     0.13300
H260        H  0.53993164  0.57443651  0.28868473     0.12400
C261        C  0.50271206  0.83400699  0.25392149     0.18700
C262        C  0.53466306  0.86552166  0.25948347    -0.10400
C263        C  0.53520380  0.88533758  0.28672238    -0.11300
C264        C  0.50378850  0.87371720  0.30849878     0.20300
C265        C  0.47154146  0.84248547  0.30281983    -0.13300
C266        C  0.47101853  0.82266373  0.27560094    -0.11600
C267        C  0.50563390  0.89271263  0.33698608     0.01200
C268        C  0.50765718  0.90703756  0.36132927    -0.31600
C269        C  0.50310445  0.81256263  0.22630619     0.02600
C270        C  0.50330255  0.79326039  0.20372099    -0.33300
H271        H  0.55939772  0.87445726  0.24290093     0.13700
H272        H  0.56038917  0.90934172  0.29091005     0.13500
H273        H  0.44719404  0.83315042  0.31952622     0.13300
H274        H  0.44625076  0.79825203  0.27156252     0.12400
C275        C  0.49078849  0.16378759  0.74097829     0.18700
C276        C  0.50621854  0.12289328  0.73789894    -0.10400
C277        C  0.50599067  0.10388067  0.71035780    -0.11300
C278        C  0.49041974  0.12571475  0.68576922     0.20300
C279        C  0.47489284  0.16657421  0.68887659    -0.13300
C280        C  0.47497928  0.18551892  0.71641155    -0.11600
C281        C  0.49021374  0.10632882  0.65736432     0.01200
C282        C  0.48937085  0.09117644  0.63322993    -0.31600
C283        C  0.49185962  0.18376947  0.76916385     0.02600
C284        C  0.49329151  0.20190857  0.79222964    -0.33300
H285        H  0.51853394  0.10579611  0.75673429     0.13700
H286        H  0.51802622  0.07226614  0.70822692     0.13500
H287        H  0.46272801  0.18375656  0.67003655     0.13300
H288        H  0.46277358  0.21707137  0.71853916     0.12400
C289        C  0.22585792  0.62639160  0.42785741     0.18700
C290        C  0.19063156  0.60169158  0.41628052    -0.10400
C291        C  0.15154616  0.62012642  0.40404141    -0.11300
C292        C  0.14749341  0.66337424  0.40330200     0.20300
C293        C  0.18241166  0.68805666  0.41525889    -0.13300
C294        C  0.22148047  0.66962737  0.42749372    -0.08800
C295        C  0.10821554  0.68261676  0.38970008     0.01200
C296        C  0.07661337  0.70060292  0.37824687    -0.31600
C297        C  0.26723668  0.60742010  0.43891749     0.02600
C298        C  0.30246403  0.59108595  0.44678159    -0.33300
H299        H  0.19367138  0.56824085  0.41635421     0.13700
H300        H  0.12480921  0.60071754  0.39486071     0.13500
H301        H  0.17969097  0.72152839  0.41478806     0.13300
H302        H  0.24850863  0.68907185  0.43628514     0.12400
C303        C  0.77949375  0.62410589  0.43644507     0.18700
C304        C  0.77325948  0.66253702  0.42276254    -0.10400
C305        C  0.81028924  0.68214309  0.40900192    -0.11300
C306        C  0.85374143  0.66342905  0.40887413     0.20300
C307        C  0.86015502  0.62525822  0.42288883    -0.13300
C308        C  0.82308012  0.60560754  0.43662928    -0.11600
C309        C  0.89144563  0.68328954  0.39407357     0.01200
C310        C  0.92195679  0.70129685  0.38154357    -0.31600
C311        C  0.74073038  0.60288100  0.44905845     0.02600
C312        C  0.70753266  0.58453588  0.45811689    -0.33300
H313        H  0.73968349  0.67704712  0.42238944     0.13700
H314        H  0.80494190  0.71163360  0.39820159     0.13500
H315        H  0.89362381  0.61054247  0.42293937     0.13300
H316        H  0.82824925  0.57582254  0.44705214     0.12400
C317        C  0.77983901  0.87306053  0.43390452     0.18700
C318        C  0.78583350  0.83029965  0.43772673    -0.10400
C319        C  0.82332602  0.81012879  0.42477988    -0.11300
C320        C  0.85498713  0.83256881  0.40788485     0.20300
C321        C  0.84939890  0.87540887  0.40447319    -0.13300
C322        C  0.81197043  0.89557843  0.41744567    -0.11600
C323        C  0.89230212  0.81144516  0.39336998     0.01200
C324        C  0.92243165  0.79260158  0.38097257    -0.31600
C325        C  0.74002841  0.89370967  0.44590351     0.02600
C326        C  0.70645606  0.91192691  0.45469628    -0.33300
H327        H  0.76126323  0.81250357  0.45037261     0.13700
H328        H  0.82732234  0.77701369  0.42764836     0.13500
H329        H  0.87361235  0.89311127  0.39148583     0.13300
H330        H  0.80773452  0.92862419  0.41430182     0.12400
C331        C  0.22534209  0.87016197  0.42457824     0.18700
C332        C  0.20831579  0.88286485  0.39732082    -0.10400
C333        C  0.16966918  0.86350935  0.38529945    -0.11300
C334        C  0.14780671  0.83134964  0.40047699     0.20300
C335        C  0.16461322  0.81879532  0.42783000    -0.13300
C336        C  0.20329378  0.83816450  0.43986210    -0.11600
C337        C  0.10888532  0.81058762  0.38768667     0.01200
C338        C  0.07717728  0.79193344  0.37696258    -0.31600
C339        C  0.26607428  0.88934737  0.43634778     0.02600
C340        C  0.30096710  0.90572243  0.44472644    -0.33300
H341        H  0.22514845  0.90747845  0.38526014     0.13700
H342        H  0.15707892  0.87337744  0.36410058     0.13500
H343        H  0.14806345  0.79385453  0.43971471     0.13300
H344        H  0.21620450  0.82798665  0.46090606     0.12400
C345        C  0.27892640  0.37439859  0.93098775     0.18700
C346        C  0.32138479  0.39460912  0.92832691    -0.10400
C347        C  0.35855824  0.37448021  0.91503316    -0.11300
C348        C  0.35339381  0.33408620  0.90429038     0.20300
C349        C  0.31087416  0.31398285  0.90682129    -0.13300
C350        C  0.27375801  0.33406019  0.92015482    -0.11600
C351        C  0.39160197  0.31300845  0.89085632     0.01200
C352        C  0.42248990  0.29373277  0.87968466    -0.31600
C353        C  0.24039122  0.39531947  0.94418577     0.02600
C354        C  0.20747267  0.41319962  0.95411452    -0.33300
H355        H  0.32570939  0.42588735  0.93647009     0.13700
H356        H  0.39124038  0.39036008  0.91314358     0.13500
H357        H  0.30641379  0.28284144  0.89845803     0.13300
H358        H  0.24104090  0.31820783  0.92192879     0.12400
C359        C  0.65208517  0.32594151  0.89961556     0.18700
C360        C  0.69622525  0.31245690  0.89181456    -0.10400
C361        C  0.73502168  0.33175510  0.90373708    -0.11300
C362        C  0.72987757  0.36462656  0.92353237     0.20300
C363        C  0.68573426  0.37786849  0.93149252    -0.13300
C364        C  0.64694567  0.35855837  0.91958204    -0.11600
C365        C  0.76983254  0.38544185  0.93502542     0.01200
C366        C  0.80383614  0.40317344  0.94352613    -0.31600
C367        C  0.61214906  0.30634878  0.88714138     0.02600
C368        C  0.57924216  0.28902163  0.87675393    -0.33300
H369        H  0.70063201  0.28721880  0.87643086     0.13700
H370        H  0.76896546  0.32127357  0.89736980     0.13500
H371        H  0.68131471  0.40327741  0.94672742     0.13300
H372        H  0.61299867  0.36918167  0.92581876     0.12400
C373        C  0.34956453  0.66298884  0.09817044     0.18700
C374        C  0.35465847  0.63250558  0.07656897    -0.10400
C375        C  0.31586263  0.61309639  0.06472013    -0.11300
C376        C  0.27180204  0.62412849  0.07439820     0.20300
C377        C  0.26674446  0.65464644  0.09598463    -0.13300
C378        C  0.30550954  0.67405215  0.10781439    -0.11600
C379        C  0.23176268  0.60393961  0.06250772     0.01200
C380        C  0.19737879  0.58722294  0.05363403    -0.31600
C381        C  0.38935707  0.68327414  0.11024971     0.02600
C382        C  0.42178183  0.70161339  0.12036834    -0.33300
H383        H  0.38854927  0.62378038  0.06889778     0.13700
H384        H  0.32020876  0.58951270  0.04807656     0.13500
H385        H  0.23286950  0.66339639  0.10367613     0.13300
H386        H  0.30114502  0.69765674  0.12444752     0.12400
C387        C  0.64731779  0.65935727  0.09306308     0.18700
C388        C  0.64355072  0.61716422  0.08624018    -0.10400
C389        C  0.68031980  0.59639203  0.07295999    -0.11300
C390        C  0.72104824  0.61770774  0.06640587     0.20300
C391        C  0.72482089  0.65988754  0.07327790    -0.13300
C392        C  0.68805934  0.68064938  0.08653566    -0.11600
C393        C  0.75924984  0.59620352  0.05318083     0.01200
C394        C  0.79199869  0.57814174  0.04312045    -0.31600
C395        C  0.60947522  0.68090382  0.10664129     0.02600
C396        C  0.57849477  0.70009621  0.11783811    -0.33300
H397        H  0.61225404  0.60035654  0.09118853     0.13700
H398        H  0.67703870  0.56374711  0.06787250     0.13500
H399        H  0.75617273  0.67668234  0.06844395     0.13300
H400        H  0.69139528  0.71325383  0.09169364     0.12400
C401        C  0.99570626  0.66048688  0.24246931     0.18700
C402        C  0.98224758  0.61895847  0.23990400    -0.10400
C403        C  0.98116388  0.59991559  0.21237928    -0.11300
C404        C  0.99350590  0.62230670  0.18728635     0.20300
C405        C  0.00731703  0.66375039  0.18988996    -0.13300
C406        C  0.00844098  0.68277097  0.21740357    -0.11600
C407        C  0.99139826  0.60302239  0.15885657     0.01200
C408        C  0.98945002  0.58781715  0.13475153    -0.31600
C409        C  0.99574926  0.68057634  0.27064084     0.02600
C410        C  0.99573168  0.69920238  0.29354072    -0.33300
H411        H  0.97232605  0.60142157  0.25911862     0.13700
H412        H  0.97043420  0.56787035  0.21064179     0.13500
H413        H  0.01694371  0.68139768  0.17066127     0.13300
H414        H  0.01897403  0.71487573  0.21911638     0.12400
C415        C  0.14718978  0.33089064  0.58976393     0.18700
C416        C  0.16556422  0.31696677  0.56313249    -0.10400
C417        C  0.20266168  0.33787847  0.55029274    -0.11300
C418        C  0.22157054  0.37276512  0.56404800     0.20300
C419        C  0.20312748  0.38664287  0.59064655    -0.13300
C420        C  0.16607020  0.36578463  0.60345431    -0.11600
C421        C  0.26025437  0.39410534  0.55127006     0.01200
C422        C  0.29314530  0.41271473  0.54191836    -0.31600
C423        C  0.10948156  0.30916787  0.60333092     0.02600
C424        C  0.07859189  0.29069231  0.61520221    -0.33300
H425        H  0.15136379  0.28991873  0.55239107     0.13700
H426        H  0.21668947  0.32677360  0.52976800     0.13500
H427        H  0.21751437  0.41348697  0.60153875     0.13300
H428        H  0.15226998  0.37675796  0.62407963     0.12400
C429        C  0.85177591  0.33289293  0.59615154     0.18700
C430        C  0.84249762  0.37436837  0.60296497    -0.10400
C431        C  0.80346827  0.39374949  0.59146560    -0.11300
C432        C  0.77358507  0.37173078  0.57310638     0.20300
C433        C  0.78301240  0.33030924  0.56619738    -0.13300
C434        C  0.82201260  0.31093453  0.57770144    -0.11600
C435        C  0.73264733  0.39127520  0.56203884     0.01200
C436        C  0.69769932  0.40760878  0.55378640    -0.31600
C437        C  0.89117231  0.31247184  0.60852716     0.02600
C438        C  0.92298642  0.29368958  0.61894981    -0.33300
H439        H  0.86519762  0.39157772  0.61729742     0.13700
H440        H  0.79640675  0.42573874  0.59705456     0.13500
H441        H  0.76005692  0.31293168  0.55213419     0.13300
H442        H  0.82877497  0.27879638  0.57240077     0.12400
C443        C  0.85030050  0.16383258  0.59519835     0.18700
C444        C  0.83331992  0.17718414  0.56806660    -0.10400
C445        C  0.79444940  0.15827438  0.55588160    -0.11300
C446        C  0.77239947  0.12589577  0.57076734     0.20300
C447        C  0.78957856  0.11241813  0.59779987    -0.13300
C448        C  0.82839192  0.13132237  0.60997724    -0.11600
C449        C  0.73167795  0.10691133  0.55877069     0.01200
C450        C  0.69689872  0.09044821  0.55025615    -0.31600
C451        C  0.88942364  0.18412073  0.60820580     0.02600
C452        C  0.92129144  0.20233043  0.61917291    -0.33300
H453        H  0.84991656  0.20235030  0.55645600     0.13700
H454        H  0.78144994  0.16904958  0.53500837     0.13500
H455        H  0.77277298  0.08749658  0.60955544     0.13300
H456        H  0.84109563  0.12080833  0.63099236     0.12400
C457        C  0.21884443  0.11862804  0.56429451     0.18700
C458        C  0.20082825  0.10371382  0.59073667    -0.10400
C459        C  0.16337046  0.12356781  0.60383177    -0.11300
C460        C  0.14376098  0.15843462  0.59054061     0.20300
C461        C  0.16156641  0.17321913  0.56400270    -0.13300
C462        C  0.19902612  0.15333736  0.55089042    -0.11600
C463        C  0.10636349  0.17982531  0.60454141     0.01200
C464        C  0.07621077  0.19927616  0.61629842    -0.31600
C465        C  0.25814347  0.09866514  0.55133116     0.02600
C466        C  0.29153704  0.08122192  0.54169836    -0.33300
H467        H  0.21595393  0.07695661  0.60132445     0.13700
H468        H  0.14999053  0.11198718  0.62440659     0.13500
H469        H  0.14677380  0.20028769  0.55361527     0.13300
H470        H  0.21273182  0.16518904  0.53048257     0.12400
C471        C  0.00848399  0.37324945  0.80826859     0.18700
C472        C  0.00848559  0.32990596  0.80650007    -0.10400
C473        C  0.00732991  0.31031152  0.77920423    -0.11300
C474        C  0.00611498  0.33390221  0.75346772     0.20300
C475        C  0.00595099  0.37726983  0.75518984    -0.13300
C476        C  0.00715363  0.39690299  0.78253451    -0.11600
C477        C  0.00524469  0.31336312  0.72544842     0.01200
C478        C  0.00453739  0.29426262  0.70274039    -0.31600
C479        C  0.01002985  0.39315276  0.83652136     0.02600
C480        C  0.01143871  0.40801758  0.86076093    -0.33300
H481        H  0.00950101  0.31126570  0.82621511     0.13700
H482        H  0.00753752  0.27678603  0.77816142     0.13500
H483        H  0.00500593  0.39584602  0.73544696     0.13300
H484        H  0.00713012  0.43042855  0.78360851     0.12400
C485        C  0.72475553  0.12109821  0.92366396     0.18700
C486        C  0.68655174  0.09719995  0.91560353    -0.10400
C487        C  0.64759662  0.11626107  0.90368428    -0.11300
C488        C  0.64669563  0.15930436  0.89976236     0.20300
C489        C  0.68472557  0.18322575  0.90805788    -0.13300
C490        C  0.72365750  0.16418172  0.91994712    -0.11600
C491        C  0.60717168  0.17910433  0.88696160     0.01200
C492        C  0.57549012  0.19788906  0.87632433    -0.31600
C493        C  0.76558474  0.10136776  0.93484728     0.02600
C494        C  0.80054458  0.08493444  0.94306197    -0.33300
H495        H  0.68704703  0.06385680  0.91829001     0.13700
H496        H  0.61839153  0.09746315  0.89735653     0.13500
H497        H  0.68438238  0.21653637  0.90515526     0.13300
H498        H  0.75300444  0.18298366  0.92600319     0.12400
C499        C  0.27714689  0.12141311  0.93134222     0.18700
C500        C  0.30807509  0.09932411  0.91372800    -0.10400
C501        C  0.34511060  0.11972974  0.90052917    -0.11300
C502        C  0.35137997  0.16230857  0.90490218     0.20300
C503        C  0.32062998  0.18434649  0.92266091    -0.13300
C504        C  0.28354815  0.16396100  0.93581642    -0.11600
C505        C  0.38900887  0.18351808  0.89098004     0.01200
C506        C  0.41995068  0.20220497  0.87941152    -0.31600
C507        C  0.23834615  0.10055760  0.94423181     0.02600
C508        C  0.20540070  0.08249040  0.95393278    -0.33300
H509        H  0.30338711  0.06643428  0.91005915     0.13700
H510        H  0.36867558  0.10239557  0.88683673     0.13500
H511        H  0.32524059  0.21725108  0.92625313     0.13300
H512        H  0.25979704  0.18136943  0.94932817     0.12400
C513        C  0.00576485  0.16295270  0.75442424     0.18700
C514        C  0.98174740  0.17939657  0.77834357    -0.10400
C515        C  0.98278916  0.15920262  0.80542305    -0.11300
C516        C  0.00779008  0.12240144  0.80874489     0.20300
C517        C  0.03189344  0.10595602  0.78484080    -0.13300
C518        C  0.03088871  0.12619973  0.75773597    -0.11600
C519        C  0.00903057  0.10200218  0.83679347     0.01200
C520        C  0.00994194  0.08660917  0.86085839    -0.31600
C521        C  0.00471055  0.18397849  0.72661443     0.02600
C522        C  0.00360162  0.20265342  0.70375150    -0.33300
H523        H  0.96222681  0.20779057  0.77605657     0.13700
H524        H  0.96415204  0.17229087  0.82376391     0.13500
H525        H  0.05147317  0.07760301  0.78716882     0.13300
H526        H  0.04967640  0.11324901  0.73941102     0.12400
C527        C  0.72304757  0.86952140  0.06419265     0.18700
C528        C  0.67836210  0.88487566  0.06054777    -0.10400
C529        C  0.64126433  0.86521180  0.07424491    -0.11300
C530        C  0.64870304  0.83016186  0.09169910     0.20300
C531        C  0.69337904  0.81475787  0.09530258    -0.13300
C532        C  0.73046319  0.83437660  0.08157231    -0.11600
C533        C  0.61057249  0.80979834  0.10573689     0.01200
C534        C  0.57928471  0.79153117  0.11728801    -0.31600
C535        C  0.76140955  0.89058997  0.05092950     0.02600
C536        C  0.79396899  0.90909316  0.04110066    -0.33300
H537        H  0.67225312  0.91213794  0.04727473     0.13700
H538        H  0.60686809  0.87737185  0.07129676     0.13500
H539        H  0.69954470  0.78773655  0.10880180     0.13300
H540        H  0.76488585  0.82234381  0.08466471     0.12400
C541        C  0.27310001  0.87158861  0.07404209     0.18700
C542        C  0.31489001  0.89299306  0.07633283    -0.10400
C543        C  0.35349593  0.87341058  0.08832873    -0.11300
C544        C  0.35049914  0.83233348  0.09811035     0.20300
C545        C  0.30868928  0.81098119  0.09587203    -0.13300
C546        C  0.27011805  0.83055179  0.08389970    -0.11600
C547        C  0.39021683  0.81183289  0.11020843     0.01200
C548        C  0.42247345  0.79305597  0.12020337    -0.31600
C549        C  0.23303928  0.89181367  0.06212987     0.02600
C550        C  0.19849408  0.90829774  0.05324422    -0.33300
H551        H  0.31759764  0.92477360  0.06890315     0.13700
H552        H  0.38561641  0.89024345  0.08994784     0.13500
H553        H  0.30593442  0.77921566  0.10334749     0.13300
H554        H  0.23798351  0.81371825  0.08236602     0.12400
C555        C  0.98964796  0.86842447  0.18651707     0.18700
C556        C  0.97306026  0.82786184  0.18958069    -0.10400
C557        C  0.97386899  0.80835702  0.21695568    -0.11300
C558        C  0.99132261  0.82926563  0.24144622     0.20300
C559        C  0.00773532  0.86987031  0.23840895    -0.13300
C560        C  0.00689194  0.88939217  0.21103273    -0.11600
C561        C  0.99293265  0.80883782  0.26952603     0.01200
C562        C  0.99447862  0.79060022  0.29259052    -0.31600
C563        C  0.98924547  0.88830793  0.15821402     0.02600
C564        C  0.98870467  0.90392522  0.13418178    -0.33300
H565        H  0.95964827  0.81129305  0.17081269     0.13700
H566        H  0.96104289  0.77697528  0.21900407     0.13500
H567        H  0.02133923  0.88635281  0.25715583     0.13300
H568        H  0.01982343  0.92073252  0.20896527     0.12400
loop_ 
_geom_bond_atom_site_label_1 
_geom_bond_atom_site_label_2 
_geom_bond_distance 
_geom_bond_site_symmetry_2 
_ccdc_geom_bond_type 
O1           Mg3   2.144   1_655  S
O1           Mg9   2.153       .  S
O1           C36   1.237       .  S
C2           O15   1.236       .  S
C2           O39   1.270       .  A
C2           H41   1.081       .  S
Mg3          O32   2.156       .  S
Mg3          O47   2.310       .  S
Mg3          O43   2.263       .  S
Mg3          O14   2.296   1_554  S
O4          Mg46   2.154       .  S
O4          Mg29   2.141   1_545  S
O4           C25   1.237   1_545  S
O5           C36   1.271   1_556  A
O5          Mg29   2.300       .  S
C6            O8   1.272       .  A
C6           O20   1.273       .  A
C6          C508   1.435       .  S
O7           C35   1.271   1_655  A
O7           Mg9   2.298   1_545  S
O8          Mg40   2.271   1_556  S
Mg9          O15   2.143   1_565  S
Mg9          O23   2.269       .  S
Mg9          O11   2.300       .  S
C10          O48   1.270       .  A
C10          O16   1.274   1_455  A
C10         C520   1.436       .  S
O11          C18   1.273       .  A
H12          C25   1.081       .  S
C13          O27   1.237       .  S
C13          O28   1.271   1_556  A
C13          H38   1.081       .  S
O14          C37   1.269       .  A
O15         Mg29   2.155   1_544  S
O16         Mg46   2.308       .  S
C17          O30   1.271       .  A
C17          O22   1.275       .  A
C17         C494   1.437       .  S
C18          O45   1.272       .  A
C18         C536   1.435       .  S
Mg19         O26   2.140   1_545  S
Mg19         O27   2.153       .  S
Mg19         O20   2.300       .  S
Mg19         O21   2.297   1_545  S
Mg19         O48   2.265       .  S
O21          C25   1.271   1_455  A
O22         Mg29   2.316   1_545  S
O23          C42   1.271       .  A
O24          C44   1.275       .  A
O24         Mg40   2.318   1_565  S
O26         Mg40   2.155   1_566  S
O26          C37   1.236       .  S
O27         Mg46   2.143   1_455  S
O28         Mg40   2.300       .  S
Mg29         O45   2.271   1_556  S
O30         Mg46   2.265       .  S
H31          C36   1.081       .  S
O32         Mg40   2.144   1_565  S
O32          C35   1.237   1_565  S
H33          C35   1.081       .  S
H34          C37   1.081       .  S
O39         Mg46   2.297   1_554  S
C42          O47   1.274   1_655  A
C42         C564   1.439       .  S
O43          C44   1.271       .  A
C44         C550   1.438       .  S
C49          H50   1.112   1_455  S
C49          C55   1.536   1_455  S
C49          C54   1.535       .  S
C49          C53   1.537       .  S
C51          H52   1.112       .  S
C51          C57   1.536       .  S
C51          C56   1.536       .  S
C51          C58   1.535   1_455  S
C53          C56   1.369       .  D
C53         C522   1.446       .  S
C54          C57   1.368       .  D
C54         C464   1.444       .  S
C55          C58   1.368       .  D
C55         C452   1.447       .  S
C56         C478   1.447       .  S
C57         C424   1.447       .  S
C58         C438   1.443       .  S
O59         Mg61   2.139   1_455  S
O59         Mg67   2.152       .  S
O59          C94   1.237       .  S
C60          O73   1.236       .  S
C60          O97   1.269       .  A
C60          H99   1.081       .  S
Mg61         O90   2.154       .  S
Mg61        O105   2.308       .  S
Mg61        O101   2.258       .  S
Mg61         O72   2.300   1_556  S
O62        Mg104   2.156       .  S
O62         Mg87   2.142       .  S
O62          C83   1.236       .  S
O63          C94   1.270   1_554  A
O63         Mg87   2.297       .  S
C64          O66   1.272       .  A
C64          O78   1.273       .  A
C64         C394   1.438       .  S
O65          C93   1.271   1_455  A
O65         Mg67   2.300       .  S
O66         Mg98   2.278   1_554  S
Mg67         O73   2.138       .  S
Mg67         O81   2.269       .  S
Mg67         O69   2.301       .  S
C68         O106   1.271       .  A
C68          O74   1.273   1_655  A
C68         C408   1.437       .  S
O69          C76   1.274       .  A
H70          C83   1.081       .  S
C71          O85   1.237       .  S
C71          O86   1.271   1_554  A
C71          H96   1.081       .  S
O72          C95   1.271       .  A
O73         Mg87   2.155   1_556  S
O74        Mg104   2.301       .  S
C75          O88   1.271       .  A
C75          O80   1.275       .  A
C75         C380   1.437       .  S
C76         O103   1.272       .  A
C76         C354   1.436       .  S
Mg77         O84   2.146       .  S
Mg77         O85   2.156       .  S
Mg77         O78   2.302       .  S
Mg77         O79   2.296       .  S
Mg77        O106   2.272       .  S
O79          C83   1.270   1_655  A
O80         Mg87   2.314       .  S
O81         C100   1.271       .  A
O82         C102   1.276       .  A
O82         Mg98   2.321       .  S
O84         Mg98   2.155   1_554  S
O84          C95   1.236       .  S
O85        Mg104   2.147   1_655  S
O86         Mg98   2.302       .  S
Mg87        O103   2.273   1_554  S
O88        Mg104   2.263       .  S
H89          C94   1.081       .  S
O90         Mg98   2.147       .  S
O90          C93   1.237       .  S
H91          C93   1.081       .  S
H92          C95   1.081       .  S
O97        Mg104   2.293   1_556  S
C100        O105   1.274   1_455  A
C100        C480   1.438       .  S
O101        C102   1.270       .  A
C102        C366   1.437       .  S
C107        H108   1.112       .  S
C107        C113   1.536       .  S
C107        C112   1.537   1_655  S
C107        C111   1.537       .  S
C109        H110   1.112       .  S
C109        C115   1.535   1_655  S
C109        C114   1.537       .  S
C109        C116   1.536       .  S
C111        C114   1.369       .  D
C111        C562   1.448       .  S
C112        C115   1.369       .  D
C112        C338   1.445       .  S
C113        C116   1.368       .  D
C113        C324   1.448       .  S
C114        C410   1.447       .  S
C115        C296   1.447       .  S
C116        C310   1.444       .  S
O117       Mg119   2.145       .  S
O117       Mg125   2.152       .  S
O117        C152   1.237       .  S
C118        O131   1.237       .  S
C118        O155   1.270       .  A
C118        H157   1.081       .  S
Mg119       O148   2.153       .  S
Mg119       O163   2.303       .  S
Mg119       O159   2.265       .  S
Mg119       O130   2.297       .  S
O120       Mg162   2.155       .  S
O120       Mg145   2.143   1_545  S
O120        C141   1.237   1_545  S
O121        C152   1.271       .  A
O121       Mg145   2.299       .  S
C122        O124   1.271       .  A
C122        O136   1.274       .  A
C122        C466   1.435       .  S
O123        C151   1.271       .  A
O123       Mg125   2.301   1_545  S
O124       Mg156   2.268       .  S
Mg125       O131   2.137   1_565  S
Mg125       O139   2.266       .  S
Mg125       O127   2.315       .  S
C126        O164   1.271       .  A
C126        O132   1.274       .  A
C126        C282   1.436       .  S
O127        C134   1.275       .  A
H128        C141   1.081       .  S
C129        O143   1.236       .  S
C129        O144   1.270       .  A
C129        H154   1.081       .  S
O130        C153   1.270       .  A
O131       Mg145   2.152   1_545  S
O132       Mg162   2.306       .  S
C133        O146   1.271       .  A
C133        O138   1.275       .  A
C133        C450   1.437       .  S
C134        O161   1.272       .  A
C134        C326   1.440       .  S
Mg135       O142   2.139   1_545  S
Mg135       O143   2.154       .  S
Mg135       O136   2.303       .  S
Mg135       O137   2.296   1_545  S
Mg135       O164   2.265       .  S
O137        C141   1.270       .  A
O138       Mg145   2.315   1_545  S
O139        C158   1.271       .  A
O140        C160   1.274       .  A
O140       Mg156   2.311   1_565  S
O142       Mg156   2.155   1_565  S
O142        C153   1.236       .  S
O143       Mg162   2.143       .  S
O144       Mg156   2.297       .  S
Mg145       O161   2.274       .  S
O146       Mg162   2.264       .  S
H147        C152   1.081       .  S
O148       Mg156   2.144   1_565  S
O148        C151   1.237   1_565  S
H149        C151   1.081       .  S
H150        C153   1.081       .  S
O155       Mg162   2.295       .  S
C158        O163   1.273       .  A
C158        C268   1.435       .  S
O159        C160   1.271       .  A
C160        C340   1.437       .  S
C165        H166   1.112       .  S
C165        C171   1.537       .  S
C165        C170   1.536       .  S
C165        C169   1.536       .  S
C167        H168   1.112       .  S
C167        C173   1.536       .  S
C167        C172   1.535       .  S
C167        C174   1.535       .  S
C169        C172   1.369       .  D
C169        C254   1.447       .  S
C170        C173   1.369       .  D
C170        C396   1.447       .  S
C171        C174   1.369       .  D
C171        C382   1.445       .  S
C172        C270   1.444       .  S
C173        C534   1.445       .  S
C174        C548   1.447       .  S
O175       Mg177   2.142       .  S
O175       Mg183   2.154       .  S
O175        C210   1.237       .  S
C176        O189   1.236       .  S
C176        O213   1.270       .  A
C176        H215   1.081       .  S
Mg177       O206   2.153       .  S
Mg177       O221   2.303       .  S
Mg177       O217   2.262       .  S
Mg177       O188   2.297       .  S
O178       Mg220   2.154       .  S
O178       Mg203   2.144       .  S
O178        C199   1.237       .  S
O179        C210   1.271       .  A
O179       Mg203   2.299       .  S
C180        O182   1.271       .  A
C180        O194   1.274       .  A
C180        C312   1.435       .  S
O181        C209   1.270       .  A
O181       Mg183   2.298       .  S
O182       Mg214   2.265       .  S
Mg183       O189   2.138       .  S
Mg183       O197   2.260       .  S
Mg183       O185   2.303       .  S
C184        O222   1.271       .  A
C184        O190   1.274       .  A
C184        C256   1.438       .  S
O185        C192   1.273       .  A
H186        C199   1.081       .  S
C187        O201   1.237       .  S
C187        O202   1.270       .  A
C187        H212   1.081       .  S
O188        C211   1.270       .  A
O189       Mg203   2.153       .  S
O190       Mg220   2.309       .  S
C191        O204   1.271       .  A
C191        O196   1.275       .  A
C191        C298   1.438       .  S
C192        O219   1.272       .  A
C192        C422   1.438       .  S
Mg193       O200   2.141       .  S
Mg193       O201   2.152       .  S
Mg193       O194   2.305       .  S
Mg193       O195   2.298       .  S
Mg193       O222   2.270       .  S
O195        C199   1.271       .  A
O196       Mg203   2.312       .  S
O197        C216   1.270       .  A
O198        C218   1.274       .  A
O198       Mg214   2.309       .  S
O200       Mg214   2.155       .  S
O200        C211   1.236       .  S
O201       Mg220   2.143       .  S
O202       Mg214   2.297       .  S
Mg203       O219   2.275       .  S
O204       Mg220   2.267       .  S
H205        C210   1.081       .  S
O206       Mg214   2.139       .  S
O206        C209   1.237       .  S
H207        C209   1.081       .  S
H208        C211   1.081       .  S
O213       Mg220   2.296       .  S
C216        O221   1.273       .  A
C216        C240   1.434       .  S
O217        C218   1.271       .  A
C218        C436   1.435       .  S
C223        H224   1.112       .  S
C223        C229   1.535       .  S
C223        C228   1.536       .  S
C223        C227   1.534       .  S
C225        H226   1.112       .  S
C225        C231   1.535       .  S
C225        C230   1.536       .  S
C225        C232   1.535       .  S
C227        C230   1.369       .  D
C227        C242   1.443       .  S
C228        C231   1.368       .  D
C228        C368   1.446       .  S
C229        C232   1.369       .  D
C229        C352   1.446       .  S
C230        C284   1.446       .  S
C231        C492   1.445       .  S
C232        C506   1.444       .  S
C233        C241   1.438       .  S
C233        C234   1.401       .  A
C233        C238   1.401       .  A
C234        H243   1.083       .  S
C234        C235   1.397       .  A
C235        H244   1.084       .  S
C235        C236   1.401       .  A
C236        C239   1.438       .  S
C236        C237   1.402       .  A
C237        H245   1.083       .  S
C237        C238   1.400       .  A
C238        H246   1.083       .  S
C239        C240   1.205       .  T
C241        C242   1.205       .  T
C247        C255   1.442       .  S
C247        C248   1.402       .  A
C247        C252   1.402       .  A
C248        H257   1.083       .  S
C248        C249   1.399       .  A
C249        H258   1.084       .  S
C249        C250   1.402       .  A
C250        C253   1.441       .  S
C250        C251   1.402       .  A
C251        H259   1.083       .  S
C251        C252   1.400       .  A
C252        H260   1.083       .  S
C253        C254   1.207       .  T
C255        C256   1.207       .  T
C261        C269   1.439       .  S
C261        C262   1.401       .  A
C261        C266   1.401       .  A
C262        H271   1.083       .  S
C262        C263   1.399       .  A
C263        H272   1.083       .  S
C263        C264   1.401       .  A
C264        C267   1.440       .  S
C264        C265   1.401       .  A
C265        H273   1.083       .  S
C265        C266   1.399       .  A
C266        H274   1.084       .  S
C267        C268   1.206       .  T
C269        C270   1.205       .  T
C275        C283   1.441       .  S
C275        C276   1.401       .  A
C275        C280   1.401       .  A
C276        H285   1.083       .  S
C276        C277   1.400       .  A
C277        H286   1.083       .  S
C277        C278   1.402       .  A
C278        C281   1.441       .  S
C278        C279   1.401       .  A
C279        H287   1.084       .  S
C279        C280   1.399       .  A
C280        H288   1.083       .  S
C281        C282   1.206       .  T
C283        C284   1.206       .  T
C289        C297   1.442       .  S
C289        C290   1.402       .  A
C289        C294   1.402       .  A
C290        H299   1.083       .  S
C290        C291   1.400       .  A
C291        H300   1.083       .  S
C291        C292   1.401       .  A
C292        C295   1.442       .  S
C292        C293   1.402       .  A
C293        H301   1.084       .  S
C293        C294   1.400       .  A
C294        H302   1.083       .  S
C295        C296   1.207       .  T
C297        C298   1.207       .  T
C303        C311   1.439       .  S
C303        C304   1.401       .  A
C303        C308   1.402       .  A
C304        H313   1.083       .  S
C304        C305   1.398       .  A
C305        H314   1.083       .  S
C305        C306   1.401       .  A
C306        C309   1.439       .  S
C306        C307   1.401       .  A
C307        H315   1.083       .  S
C307        C308   1.399       .  A
C308        H316   1.083       .  S
C309        C310   1.205       .  T
C311        C312   1.206       .  T
C317        C325   1.444       .  S
C317        C318   1.402       .  A
C317        C322   1.402       .  A
C318        H327   1.083       .  S
C318        C319   1.401       .  A
C319        H328   1.083       .  S
C319        C320   1.403       .  A
C320        C323   1.443       .  S
C320        C321   1.401       .  A
C321        H329   1.083       .  S
C321        C322   1.400       .  A
C322        H330   1.083       .  S
C323        C324   1.208       .  T
C325        C326   1.209       .  T
C331        C339   1.441       .  S
C331        C332   1.402       .  A
C331        C336   1.402       .  A
C332        H341   1.083       .  S
C332        C333   1.399       .  A
C333        H342   1.083       .  S
C333        C334   1.401       .  A
C334        C337   1.440       .  S
C334        C335   1.402       .  A
C335        H343   1.084       .  S
C335        C336   1.400       .  A
C336        H344   1.083       .  S
C337        C338   1.206       .  T
C339        C340   1.207       .  T
C345        C353   1.441       .  S
C345        C346   1.402       .  A
C345        C350   1.401       .  A
C346        H355   1.083       .  S
C346        C347   1.400       .  A
C347        H356   1.083       .  S
C347        C348   1.401       .  A
C348        C351   1.440       .  S
C348        C349   1.401       .  A
C349        H357   1.083       .  S
C349        C350   1.399       .  A
C350        H358   1.083       .  S
C351        C352   1.206       .  T
C353        C354   1.206       .  T
C359        C367   1.441       .  S
C359        C360   1.402       .  A
C359        C364   1.401       .  A
C360        H369   1.084       .  S
C360        C361   1.400       .  A
C361        H370   1.083       .  S
C361        C362   1.402       .  A
C362        C365   1.442       .  S
C362        C363   1.401       .  A
C363        H371   1.083       .  S
C363        C364   1.399       .  A
C364        H372   1.083       .  S
C365        C366   1.207       .  T
C367        C368   1.206       .  T
C373        C381   1.440       .  S
C373        C374   1.401       .  A
C373        C378   1.401       .  A
C374        H383   1.083       .  S
C374        C375   1.400       .  A
C375        H384   1.083       .  S
C375        C376   1.402       .  A
C376        C379   1.441       .  S
C376        C377   1.402       .  A
C377        H385   1.083       .  S
C377        C378   1.399       .  A
C378        H386   1.084       .  S
C379        C380   1.207       .  T
C381        C382   1.206       .  T
C387        C395   1.442       .  S
C387        C388   1.402       .  A
C387        C392   1.402       .  A
C388        H397   1.083       .  S
C388        C389   1.400       .  A
C389        H398   1.083       .  S
C389        C390   1.402       .  A
C390        C393   1.443       .  S
C390        C391   1.402       .  A
C391        H399   1.083       .  S
C391        C392   1.400       .  A
C392        H400   1.083       .  S
C393        C394   1.208       .  T
C395        C396   1.207       .  T
C401        C409   1.441       .  S
C401        C402   1.401       .  A
C401        C406   1.402   1_655  A
C402        H411   1.083       .  S
C402        C403   1.400       .  A
C403        H412   1.083       .  S
C403        C404   1.402       .  A
C404        C407   1.442       .  S
C404        C405   1.402   1_655  A
C405        H413   1.083       .  S
C405        C406   1.399       .  A
C406        H414   1.084       .  S
C407        C408   1.207       .  T
C409        C410   1.207       .  T
C415        C423   1.441       .  S
C415        C416   1.403       .  A
C415        C420   1.401       .  A
C416        H425   1.084       .  S
C416        C417   1.401       .  A
C417        H426   1.083       .  S
C417        C418   1.402       .  A
C418        C421   1.442       .  S
C418        C419   1.401       .  A
C419        H427   1.083       .  S
C419        C420   1.399       .  A
C420        H428   1.083       .  S
C421        C422   1.207       .  T
C423        C424   1.207       .  T
C429        C437   1.438       .  S
C429        C430   1.401       .  A
C429        C434   1.401       .  A
C430        H439   1.083       .  S
C430        C431   1.399       .  A
C431        H440   1.083       .  S
C431        C432   1.402       .  A
C432        C435   1.440       .  S
C432        C433   1.401       .  A
C433        H441   1.083       .  S
C433        C434   1.398       .  A
C434        H442   1.083       .  S
C435        C436   1.206       .  T
C437        C438   1.205       .  T
C443        C451   1.442       .  S
C443        C444   1.402       .  A
C443        C448   1.401       .  A
C444        H453   1.083       .  S
C444        C445   1.401       .  A
C445        H454   1.083       .  S
C445        C446   1.402       .  A
C446        C449   1.442       .  S
C446        C447   1.402       .  A
C447        H455   1.083       .  S
C447        C448   1.399       .  A
C448        H456   1.083       .  S
C449        C450   1.207       .  T
C451        C452   1.207       .  T
C457        C465   1.440       .  S
C457        C458   1.402       .  A
C457        C462   1.401       .  A
C458        H467   1.083       .  S
C458        C459   1.398       .  A
C459        H468   1.083       .  S
C459        C460   1.401       .  A
C460        C463   1.438       .  S
C460        C461   1.402       .  A
C461        H469   1.084       .  S
C461        C462   1.399       .  A
C462        H470   1.083       .  S
C463        C464   1.205       .  T
C465        C466   1.206       .  T
C471        C479   1.443       .  S
C471        C472   1.402       .  A
C471        C476   1.402       .  A
C472        H481   1.083       .  S
C472        C473   1.399       .  A
C473        H482   1.083       .  S
C473        C474   1.401       .  A
C474        C477   1.442       .  S
C474        C475   1.402       .  A
C475        H483   1.083       .  S
C475        C476   1.401       .  A
C476        H484   1.083       .  S
C477        C478   1.207       .  T
C479        C480   1.208       .  T
C485        C493   1.442       .  S
C485        C486   1.402       .  A
C485        C490   1.401       .  A
C486        H495   1.083       .  S
C486        C487   1.400       .  A
C487        H496   1.083       .  S
C487        C488   1.401       .  A
C488        C491   1.440       .  S
C488        C489   1.401       .  A
C489        H497   1.083       .  S
C489        C490   1.399       .  A
C490        H498   1.083       .  S
C491        C492   1.206       .  T
C493        C494   1.207       .  T
C499        C507   1.440       .  S
C499        C500   1.402       .  A
C499        C504   1.401       .  A
C500        H509   1.083       .  S
C500        C501   1.399       .  A
C501        H510   1.083       .  S
C501        C502   1.401       .  A
C502        C505   1.439       .  S
C502        C503   1.401       .  A
C503        H511   1.083       .  S
C503        C504   1.399       .  A
C504        H512   1.083       .  S
C505        C506   1.205       .  T
C507        C508   1.206       .  T
C513        C521   1.441       .  S
C513        C514   1.401   1_455  A
C513        C518   1.402       .  A
C514        H523   1.083       .  S
C514        C515   1.399       .  A
C515        H524   1.083       .  S
C515        C516   1.401   1_655  A
C516        C519   1.441       .  S
C516        C517   1.402       .  A
C517        H525   1.083       .  S
C517        C518   1.400       .  A
C518        H526   1.083       .  S
C519        C520   1.207       .  T
C521        C522   1.206       .  T
C527        C535   1.440       .  S
C527        C528   1.401       .  A
C527        C532   1.401       .  A
C528        H537   1.083       .  S
C528        C529   1.399       .  A
C529        H538   1.083       .  S
C529        C530   1.401       .  A
C530        C533   1.440       .  S
C530        C531   1.401       .  A
C531        H539   1.083       .  S
C531        C532   1.399       .  A
C532        H540   1.083       .  S
C533        C534   1.206       .  T
C535        C536   1.206       .  T
C541        C549   1.443       .  S
C541        C542   1.402       .  A
C541        C546   1.402       .  A
C542        H551   1.083       .  S
C542        C543   1.401       .  A
C543        H552   1.083       .  S
C543        C544   1.402       .  A
C544        C547   1.442       .  S
C544        C545   1.402       .  A
C545        H553   1.084       .  S
C545        C546   1.399       .  A
C546        H554   1.083       .  S
C547        C548   1.207       .  T
C549        C550   1.208       .  T
C555        C563   1.443       .  S
C555        C556   1.402       .  A
C555        C560   1.402   1_655  A
C556        H565   1.083       .  S
C556        C557   1.400       .  A
C557        H566   1.083       .  S
C557        C558   1.402       .  A
C558        C561   1.443       .  S
C558        C559   1.402   1_655  A
C559        H567   1.083       .  S
C559        C560   1.401       .  A
C560        H568   1.083       .  S
C561        C562   1.208       .  T
C563        C564   1.208       .  T
