geometry optimzed in LAMMPS
_audit_creation_date              2020-11-30 
_audit_creation_method            'lammps2cif' 
_symmetry_space_group_name_H-M    'P1' 
_symmetry_Int_Tables_number       1 
_symmetry_cell_setting            triclinic 
loop_ 
_symmetry_equiv_pos_as_xyz 
  x,y,z 
_cell_length_a                    46.91528608 
_cell_length_b                    47.16036768548959 
_cell_length_c                    47.129220169389654 
_cell_angle_alpha                 89.84443645413985 
_cell_angle_beta                  90.05352916854731 
_cell_angle_gamma                 89.8193327550647 
loop_ 
_atom_site_label 
_atom_site_type_symbol 
_atom_site_fract_x 
_atom_site_fract_y 
_atom_site_fract_z 
_atom_site_charge 
O1          O  0.05008169  0.00136419  0.26508607    -0.88500
C2          C  0.50126137  0.43264211  0.25072080     0.87500
Mg3        Mg  0.03880873  0.03349665  0.29512641     1.58100
O4          O  0.00119622  0.48467020  0.19706487    -0.88200
O5          O  0.06366249  0.49683570  0.22078860    -0.75600
C6          C  0.40560616  0.07003398  0.26208199     0.92600
O7          O  0.00867419  0.46996433  0.30808340    -0.75400
O8          O  0.42178106  0.07018157  0.28392166    -0.82900
Mg9        Mg  0.04765539  0.45888736  0.28035266     1.58000
C10         C  0.42178569  0.00893338  0.16376639     0.92500
O11         O  0.08730912  0.44342610  0.25692621    -0.81100
H12         H  0.02196067  0.00878446  0.16814326    -0.06500
C13         C  0.43361913  0.49108247  0.25320990     0.87500
O14         O  0.02277677  0.06298595  0.25965657    -0.75600
O15         O  0.02125775  0.44867800  0.24531244    -0.88400
O16         O  0.43845896  0.48720902  0.16684977    -0.81200
C17         C  0.49367074  0.41581328  0.16889862     0.92600
C18         C  0.09471069  0.43104774  0.23409780     0.92500
Mg19       Mg  0.45169791  0.04052618  0.21682422     1.58000
O20         O  0.41192708  0.05568163  0.24016117    -0.81100
O21         O  0.49029176  0.02970185  0.18870471    -0.75400
O22         O  0.01745379  0.42139912  0.18079565    -0.81200
O23         O  0.07673237  0.46877569  0.31682531    -0.82900
O24         O  0.48291699  0.07893973  0.31592697    -0.81300
C25         C  0.00517916  0.00769118  0.18380165     0.86900
O26         O  0.47858936  0.05078015  0.25189975    -0.88400
O27         O  0.44925297  0.49761679  0.23321092    -0.88500
O28         O  0.43477835  0.00384366  0.27644525    -0.75600
Mg29       Mg  0.03852875  0.45875851  0.20392709     1.58000
O30         O  0.47118143  0.43002916  0.17362532    -0.82900
H31         H  0.08009601  0.02623547  0.24825094    -0.06700
O32         O  0.49739561  0.01410085  0.30066173    -0.88200
H33         H  0.47676360  0.49061445  0.32851403    -0.06500
H34         H  0.99684708  0.08327465  0.23165778    -0.06700
C35         C  0.49382981  0.49196487  0.31318524     0.86900
C36         C  0.06548505  0.00883113  0.24524378     0.87500
C37         C  0.99901028  0.06657110  0.24727283     0.87500
H38         H  0.41872351  0.47383762  0.25072772    -0.06600
O39         O  0.47693131  0.43612174  0.23954955    -0.75700
Mg40       Mg  0.46087672  0.04146106  0.29317333     1.58000
H41         H  0.50420293  0.41606157  0.26634425    -0.06700
C42         C  0.07703004  0.48913357  0.33431107     0.92500
O43         O  0.02760728  0.06728831  0.32665934    -0.82900
C44         C  0.00582727  0.08298572  0.33004273     0.92600
O45         O  0.07868680  0.43143913  0.21216780    -0.82900
Mg46       Mg  0.46019859  0.46464918  0.20400547     1.58200
O47         O  0.05985737  0.00936874  0.33195375    -0.81200
O48         O  0.42211947  0.02972682  0.18078611    -0.82900
O49         O  0.00408346  0.26218360  0.05188098    -0.88500
C50         C  0.43454111  0.25083608  0.50179542     0.87500
Mg51       Mg  0.03711960  0.29186058  0.04241832     1.58100
O52         O  0.48592358  0.19608187  0.00082864    -0.88200
O53         O  0.49747384  0.21802103  0.06403642    -0.75600
C54         C  0.07219715  0.26564388  0.40860782     0.92600
O55         O  0.47227548  0.30784787  0.01182247    -0.75400
O56         O  0.07179759  0.28676663  0.42549048    -0.82900
Mg57       Mg  0.46120192  0.27867340  0.04928986     1.58000
C58         C  0.01127194  0.16581893  0.42091027     0.92500
O59         O  0.44637227  0.25424085  0.08827197    -0.81100
H60         H  0.00959839  0.16682818  0.02080541    -0.06500
C61         C  0.49297051  0.25495429  0.43588642     0.87500
O62         O  0.06622613  0.25707511  0.02476190    -0.75600
O63         O  0.45083130  0.24475891  0.02146906    -0.88400
O64         O  0.48916475  0.16885642  0.43635349    -0.80800
C65         C  0.41645107  0.16915870  0.49178031     0.92600
C66         C  0.43064034  0.23288315  0.09312003     0.92500
Mg67       Mg  0.04268024  0.21785805  0.45308410     1.58000
O68         O  0.05928628  0.24266974  0.41465533    -0.81100
O69         O  0.03085848  0.18867212  0.49052025    -0.75400
O70         O  0.42152666  0.18127365  0.01515262    -0.81200
O71         O  0.47085530  0.31455597  0.07900182    -0.82900
O72         O  0.08143969  0.31581392  0.48730506    -0.81300
C73         C  0.00856615  0.18298311  0.00452195     0.86900
O74         O  0.05305448  0.25184692  0.48095129    -0.88400
O75         O  0.49969430  0.23418228  0.45041438    -0.88500
O76         O  0.00569037  0.27855725  0.43872866    -0.75600
Mg77       Mg  0.45918819  0.20286443  0.03764433     1.58000
O78         O  0.43117700  0.17357603  0.46959596    -0.82900
H79         H  0.02804210  0.24304694  0.08140879    -0.06700
O80         O  0.01727995  0.30004889  0.50172850    -0.88200
H81         H  0.49413685  0.32963264  0.48153307    -0.06500
H82         H  0.08596798  0.23054834  0.99718751    -0.06700
C83         C  0.49481361  0.31346564  0.49782071     0.86900
C84         C  0.01058467  0.24141334  0.06653026     0.87500
C85         C  0.06929207  0.24606925  0.00044966     0.87500
H86         H  0.47556782  0.25318974  0.42096064    -0.06600
O87         O  0.43752654  0.23976593  0.47751382    -0.75700
Mg88       Mg  0.04381703  0.29391948  0.46500864     1.58000
H89         H  0.41800792  0.26651497  0.50502520    -0.06700
C90         C  0.49178232  0.33145895  0.08027490     0.92500
O91         O  0.07092036  0.32367413  0.03257683    -0.82900
C92         C  0.08515333  0.32894310  0.01032706     0.92600
O93         O  0.43018514  0.21158840  0.07642518    -0.82900
Mg94       Mg  0.46624581  0.20467166  0.45990479     1.58200
O95         O  0.01399983  0.32758949  0.06531390    -0.81200
O96         O  0.03243713  0.18241266  0.42273935    -0.82900
O97         O  0.21542101  0.28238668  0.22287751    -0.88500
C98         C  0.30167640  0.29058280  0.23452748     0.87500
Mg99       Mg  0.18611153  0.28088270  0.25826133     1.58100
O100        O  0.27923394  0.22228511  0.21442601    -0.88200
O101        O  0.22841618  0.25737324  0.18604039    -0.75600
C102        C  0.23977743  0.18422437  0.34626397     0.92600
O103        O  0.24752961  0.31614811  0.27235850    -0.75400
O104        O  0.22537414  0.20714281  0.34715557    -0.82900
Mg105      Mg  0.24552348  0.31680101  0.22339811     1.58000
C106        C  0.31350183  0.15209347  0.25867522     0.92500
O107        O  0.24603209  0.32414425  0.17494692    -0.81100
H108        H  0.26067782  0.19614174  0.18673001    -0.06500
C109        C  0.29196047  0.23337330  0.29959842     0.87500
O110        O  0.18465940  0.23208764  0.25615939    -0.75600
O111        O  0.27978348  0.28608850  0.22066899    -0.88400
O112        O  0.32046584  0.17294551  0.24285436    -0.81200
C113        C  0.34685809  0.23858041  0.18365851     0.92600
C114        C  0.26116418  0.31659683  0.15380840     0.92500
Mg115      Mg  0.25543869  0.18547416  0.27680717     1.58000
O116        O  0.25463264  0.17751244  0.32467543    -0.81100
O117        O  0.25352374  0.18621484  0.22804457    -0.75400
O118        O  0.32610995  0.25506775  0.17749462    -0.81200
O119        O  0.20893072  0.34885452  0.22544217    -0.82900
O120        O  0.17519663  0.24625699  0.32306283    -0.81300
C121        C  0.26464320  0.20132697  0.20870427     0.86900
O122        O  0.22156676  0.21635607  0.27991442    -0.88400
O123        O  0.28576783  0.21986356  0.27803626    -0.88500
O124        O  0.27291836  0.24457615  0.31514615    -0.75600
Mg125      Mg  0.27753875  0.25723816  0.18513088     1.58000
O126        O  0.34632293  0.22279512  0.20559848    -0.82900
H127        H  0.18712921  0.26558894  0.19605542    -0.06700
O128        O  0.22214688  0.28001362  0.28670686    -0.88200
H129        H  0.24113560  0.30642354  0.31387470    -0.06500
H130        H  0.19310406  0.19027107  0.26233500    -0.06700
C131        C  0.23683946  0.30104592  0.29201031     0.86900
C132        C  0.20930158  0.26864057  0.20145472     0.87500
C133        C  0.19953925  0.21188799  0.26627150     0.87500
H134        H  0.31415413  0.23631518  0.30498158    -0.06600
O135        O  0.31647271  0.27040414  0.24482482    -0.75700
Mg136      Mg  0.22383989  0.24461063  0.31596155     1.58000
H137        H  0.30806048  0.31220924  0.23849507    -0.06700
C138        C  0.18740546  0.35007773  0.24182363     0.92500
O139        O  0.15505922  0.27935830  0.29572596    -0.82900
C140        C  0.15435476  0.26262400  0.31697172     0.92600
O141        O  0.27606081  0.29404119  0.15393958    -0.82900
Mg142      Mg  0.31519485  0.22155395  0.24289100     1.58200
O143        O  0.18092586  0.32966187  0.25841706    -0.81200
O144        O  0.29154355  0.15296592  0.27447667    -0.82900
O145        O  0.29121124  0.47720200  0.02443436    -0.88500
C146        C  0.20880648  0.48025620  0.04937880     0.87500
Mg147      Mg  0.31431332  0.01541791  0.01642288     1.58100
O148        O  0.22043395  0.46093902  0.47842632    -0.88200
O149        O  0.27968899  0.43816358  0.00264289    -0.75600
C150        C  0.23558534  0.09539621  0.43161270     0.92600
O151        O  0.26053186  0.02387311  0.06313893    -0.75400
O152        O  0.25332974  0.09793328  0.45185637    -0.82900
Mg153      Mg  0.26868016  0.47549769  0.06407658     1.58000
C154        C  0.16834546  0.49725579  0.41632869     0.92500
O155        O  0.27524541  0.42727713  0.07263277    -0.81100
H156        H  0.23667507  0.43477562  0.44928346    -0.06500
C157        C  0.19851462  0.04455988  0.48958126     0.87500
O158        O  0.30712444  0.01150532  0.46864872    -0.75600
O159        O  0.23045968  0.46784127  0.04102762    -0.88400
O160        O  0.16771687  0.48132399  0.43817290    -0.81200
C161        C  0.16191860  0.42399251  0.00935781     0.92600
C162        C  0.26187941  0.40422402  0.06780291     0.92500
Mg163      Mg  0.22803320  0.02446180  0.43646383     1.58000
O164        O  0.22153096  0.07254754  0.42772333    -0.81100
O165        O  0.23641187  0.47623419  0.43760743    -0.75400
O166        O  0.18626735  0.41995035  0.02041252    -0.81200
O167        O  0.30963648  0.48353054  0.08757556    -0.82900
O168        O  0.31126579  0.08162497  0.48118334    -0.81300
C169        C  0.23110930  0.45627766  0.45494402     0.86900
O170        O  0.26648887  0.03261445  0.45953532    -0.88400
O171        O  0.20532282  0.02324402  0.47604944    -0.88500
O172        O  0.21692270  0.06274779  0.49692994    -0.75600
Mg173      Mg  0.23213727  0.43244962  0.01216094     1.58000
O174        O  0.15664751  0.44559943  0.49391630    -0.82900
H175        H  0.31996430  0.45369391  0.00376272    -0.06700
O176        O  0.27583375  0.03969461  0.02223382    -0.88200
H177        H  0.25920309  0.06537709  0.05160005    -0.06500
H178        H  0.29100571  0.01630717  0.42894692    -0.06700
C179        C  0.26515385  0.04401898  0.04578661     0.86900
C180        C  0.29804748  0.45624800  0.01034529     0.87500
C181        C  0.28831390  0.02038251  0.45134766     0.87500
H182        H  0.17656053  0.04741343  0.49591523    -0.06600
O183        O  0.18995374  0.48932660  0.03223964    -0.75700
Mg184      Mg  0.26470139  0.06839601  0.48815197     1.58000
H185        H  0.20635615  0.48439755  0.07179110    -0.06700
C186        C  0.32801814  0.00343239  0.08445292     0.92500
O187        O  0.33945227  0.05501273  0.00821538    -0.82900
C188        C  0.33498748  0.07731600  0.49361951     0.92600
O189        O  0.24398077  0.40248407  0.04763650    -0.82900
Mg190      Mg  0.18207030  0.48530254  0.48461568     1.58200
O191        O  0.32784977  0.01981493  0.06297049    -0.81200
O192        O  0.18694451  0.01578307  0.41279616    -0.82900
C193        C  0.26335406  0.33625227  0.12952465    -0.00300
C194        C  0.28410221  0.35750206  0.13065569    -0.12200
C195        C  0.28537863  0.37885131  0.10994604     0.01900
C196        C  0.26522981  0.37941227  0.08748437    -0.00400
C197        C  0.24547312  0.35690620  0.08568555    -0.12100
C198        C  0.24440127  0.33553051  0.10645458     0.01800
H199        H  0.29900108  0.35780453  0.14828294     0.14800
H200        H  0.22996636  0.35648965  0.06862771     0.14800
C201        C  0.22328862  0.31346882  0.10408165     0.36500
C202        C  0.30743508  0.39990393  0.11280760     0.36400
N203        N  0.20645002  0.29569882  0.10214240    -0.43900
N204        N  0.32525964  0.41660229  0.11534083    -0.43900
C205        C  0.23334332  0.11864876  0.41027952    -0.00300
C206        C  0.23582291  0.14719408  0.41870533    -0.12200
C207        C  0.23732303  0.16923603  0.39848576     0.01900
C208        C  0.23731211  0.16273349  0.36926373    -0.00400
C209        C  0.23454351  0.13429427  0.36099524    -0.12100
C210        C  0.23236188  0.11245403  0.38094665     0.01800
H211        H  0.23695625  0.15225026  0.44110816     0.14800
H212        H  0.23415646  0.12900321  0.33860031     0.14800
C213        C  0.23093699  0.08371767  0.37045453     0.36500
C214        C  0.24016163  0.19806767  0.40820759     0.36400
N215        N  0.22982750  0.06073309  0.36198661    -0.43900
N216        N  0.24242613  0.22119227  0.41602773    -0.43900
C217        C  0.39492148  0.14643237  0.49145324    -0.00300
C218        C  0.39603836  0.12640214  0.51341692    -0.12200
C219        C  0.37796435  0.10296090  0.51372231     0.01900
C220        C  0.35732610  0.09958414  0.49201198    -0.00400
C221        C  0.35638248  0.11967335  0.46982867    -0.12100
C222        C  0.37526193  0.14270107  0.46915789     0.01800
H223        H  0.41169921  0.12873012  0.53021542     0.14800
H224        H  0.34027555  0.11785215  0.95322319     0.14800
C225        C  0.37286263  0.16307508  0.94633117     0.36500
C226        C  0.38118091  0.08314431  0.53693241     0.36400
N227        N  0.37109450  0.17933896  0.92797776    -0.43900
N228        N  0.38422910  0.06724563  0.55543531    -0.43900
C229        C  0.10466377  0.35333060  0.01064006    -0.00300
C230        C  0.12306793  0.35745167  0.03370752    -0.12200
C231        C  0.14089101  0.38123565  0.03480270     0.01900
C232        C  0.14014816  0.40152370  0.01253869    -0.00400
C233        C  0.12023615  0.39837028  0.49088462    -0.12100
C234        C  0.10270329  0.37457982  0.48973106     0.01800
H235        H  0.12369260  0.34194063  0.05073829     0.14800
H236        H  0.11902154  0.41386029  0.47386662     0.14800
C237        C  0.08200015  0.37290840  0.46706885     0.36500
C238        C  0.15934457  0.38438472  0.05915437     0.36400
N239        N  0.06527579  0.37156893  0.44906224    -0.43900
N240        N  0.17405532  0.38690048  0.07871209    -0.43900
C241        C  0.12961677  0.26326429  0.33665254    -0.00300
C242        C  0.11919528  0.28954512  0.34625997    -0.12200
C243        C  0.09978244  0.29117091  0.36898403     0.01900
C244        C  0.08993674  0.26604041  0.38220412    -0.00400
C245        C  0.09895438  0.23979122  0.37102650    -0.12100
C246        C  0.11868773  0.23822554  0.34882086     0.01800
H247        H  0.12741874  0.30895477  0.33702081     0.14800
H248        H  0.09158022  0.22015072  0.38047952     0.14800
C249        C  0.12763841  0.21054813  0.33915757     0.36500
C250        C  0.09076846  0.31887731  0.37840220     0.36400
N251        N  0.13477306  0.18834633  0.33147770    -0.43900
N252        N  0.08365028  0.34116632  0.38584482    -0.43900
C253        C  0.37131834  0.23713681  0.16345677    -0.00300
C254        C  0.37749613  0.26128128  0.14718168    -0.12200
C255        C  0.39712568  0.26030817  0.12488157     0.01900
C256        C  0.41113975  0.23452832  0.11800129    -0.00400
C257        C  0.40557451  0.21044496  0.13461801    -0.12100
C258        C  0.38621298  0.21161958  0.15742047     0.01800
H259        H  0.36631535  0.28099416  0.15142081     0.14800
H260        H  0.41627383  0.19064000  0.12971316     0.14800
C261        C  0.38128469  0.18597250  0.17337826     0.36500
C262        C  0.40097726  0.28587632  0.10833914     0.36400
N263        N  0.37760769  0.16535203  0.18618573    -0.43900
N264        N  0.40398301  0.30637008  0.09512506    -0.43900
C265        C  0.33301808  0.12714580  0.25951109    -0.00300
C266        C  0.34730985  0.11970452  0.23454663    -0.12200
C267        C  0.37011860  0.10052925  0.23482858     0.01900
C268        C  0.37946942  0.08820692  0.26079161    -0.00400
C269        C  0.36425604  0.09459430  0.28566325    -0.12100
C270        C  0.34096517  0.11352225  0.28516705     0.01800
H271        H  0.34117588  0.12972818  0.21471020     0.14800
H272        H  0.37081401  0.08510264  0.30561987     0.14800
C273        C  0.32654142  0.11955241  0.31152406     0.36500
C274        C  0.38454778  0.09565219  0.20819352     0.36400
N275        N  0.31483660  0.12421129  0.33261840    -0.43900
N276        N  0.39594915  0.09198419  0.18674489    -0.43900
C277        C  0.16770193  0.37479281  0.24015384    -0.00300
C278        C  0.15890959  0.38475024  0.21333329    -0.12200
C279        C  0.13595330  0.40388104  0.21050506     0.01900
C280        C  0.12160276  0.41384780  0.23494968    -0.00400
C281        C  0.13204704  0.40540629  0.26178000    -0.12100
C282        C  0.15451006  0.38599120  0.26453192     0.01800
H283        H  0.16894808  0.37634156  0.19440299     0.14800
H284        H  0.12179485  0.41294387  0.28095810     0.14800
C285        C  0.16332275  0.37761364  0.29271966     0.36500
C286        C  0.12745836  0.41247759  0.18231316     0.36400
N287        N  0.17031060  0.37096560  0.31534145    -0.43900
N288        N  0.12074568  0.41931108  0.15966027    -0.43900
C289        C  0.09885016  0.48967991  0.35719654    -0.00300
C290        C  0.10616728  0.01540705  0.36833737    -0.12200
C291        C  0.12908151  0.01832403  0.38697431     0.01900
C292        C  0.14501339  0.49488327  0.39549451    -0.00400
C293        C  0.13671533  0.46810295  0.38563032    -0.12100
C294        C  0.11409025  0.46529054  0.36634053     0.01800
H295        H  0.09483781  0.03435635  0.36161924     0.14800
H296        H  0.14822113  0.44938578  0.39270839     0.14800
C297        C  0.10709534  0.43716692  0.35651512     0.36500
C298        C  0.13547169  0.04628106  0.39768514     0.36400
N299        N  0.10164246  0.41459429  0.34864460    -0.43900
N300        N  0.14050398  0.06866651  0.40631260    -0.43900
C301        C  0.35156357  0.00583909  0.10497139    -0.00300
C302        C  0.36563592  0.98087769  0.11292517    -0.12200
C303        C  0.38906535  0.98139738  0.13113327     0.01900
C304        C  0.39923854  0.00763900  0.14166706    -0.00400
C305        C  0.38520784  0.03276737  0.13335345    -0.12100
C306        C  0.36151826  0.03205813  0.11520914     0.01800
H307        H  0.35839532  0.96074560  0.10460510     0.14800
H308        H  0.39240564  0.05300441  0.14144922     0.14800
C309        C  0.34702062  0.05829001  0.10851969     0.36500
C310        C  0.40097944  0.95435487  0.13952092     0.36400
N311        N  0.33538536  0.07932525  0.10322322    -0.43900
N312        N  0.41014071  0.93249981  0.14611773    -0.43900
C313        C  0.49278006  0.39376888  0.14688364    -0.00300
C314        C  0.01419613  0.39398334  0.12614222    -0.12200
C315        C  0.01346474  0.37523873  0.10325849     0.01900
C316        C  0.49129264  0.35489638  0.10133667    -0.00400
C317        C  0.46948214  0.35530321  0.12188331    -0.12100
C318        C  0.46991835  0.37465155  0.14433425     0.01800
H319        H  0.03119793  0.40948723  0.12740651     0.14800
H320        H  0.45227309  0.34004824  0.12088339     0.14800
C321        C  0.44719324  0.37380231  0.16497117     0.36500
C322        C  0.03546041  0.37807508  0.08199656     0.36400
N323        N  0.42894911  0.37317614  0.18147054    -0.43900
N324        N  0.05306051  0.38063683  0.06499442    -0.43900
C325        C  0.00701685  0.10553096  0.35218443    -0.00300
C326        C  0.03345899  0.11171754  0.36502025    -0.12200
C327        C  0.03552696  0.13079199  0.38769506     0.01900
C328        C  0.01071284  0.14394394  0.39836739    -0.00400
C329        C  0.98438067  0.13794304  0.38554746    -0.12100
C330        C  0.98228438  0.11928224  0.36263956     0.01800
H331        H  0.05272717  0.10143311  0.35752380     0.14800
H332        H  0.46517184  0.14846212  0.39300075     0.14800
C333        C  0.45426147  0.11479547  0.35064554     0.36500
C334        C  0.06325494  0.13580786  0.40001748     0.36400
N335        N  0.43177489  0.11137163  0.34115217    -0.43900
N336        N  0.08550404  0.13979930  0.40983005    -0.43900
O337        O  0.05020655  0.00161485  0.76505899    -0.88500
C338        C  0.50112680  0.43269212  0.75071465     0.87500
Mg339      Mg  0.03889728  0.03392361  0.79485060     1.58100
O340        O  0.00122351  0.48481212  0.69719202    -0.88200
O341        O  0.06368540  0.49681237  0.72094197    -0.75600
C342        C  0.40561556  0.07018411  0.76185538     0.92600
O343        O  0.00865951  0.46985738  0.80819173    -0.75400
O344        O  0.42180614  0.07039899  0.78367692    -0.82900
Mg345      Mg  0.04760627  0.45878805  0.78039086     1.58000
C346        C  0.42162495  0.00877055  0.66377990     0.92500
O347        O  0.08721623  0.44333989  0.75691248    -0.81100
H348        H  0.02187640  0.00858054  0.66791869    -0.06500
C349        C  0.43360164  0.49122546  0.75328590     0.87500
O350        O  0.02286810  0.06317032  0.75917597    -0.75600
O351        O  0.02116667  0.44867943  0.74535751    -0.88400
O352        O  0.43864168  0.48756742  0.66689449    -0.81200
C353        C  0.49360201  0.41609389  0.66881134     0.92600
C354        C  0.09458410  0.43096099  0.73407712     0.92500
Mg355      Mg  0.45170912  0.04053627  0.71664303     1.58000
O356        O  0.41195732  0.05582096  0.73994740    -0.81100
O357        O  0.49026471  0.02961981  0.68850096    -0.75400
O358        O  0.01735287  0.42156049  0.68076370    -0.81200
O359        O  0.07678714  0.46857385  0.81678041    -0.82900
O360        O  0.48293951  0.07937155  0.81546450    -0.81300
C361        C  0.00512846  0.00757433  0.68361868     0.86900
O362        O  0.47863467  0.05092887  0.75163142    -0.88400
O363        O  0.44927419  0.49777861  0.73332280    -0.88500
O364        O  0.43486307  0.00405265  0.77639639    -0.75600
Mg365      Mg  0.03847931  0.45881539  0.70399413     1.58000
O366        O  0.47112154  0.43030376  0.67358718    -0.82900
H367        H  0.08019418  0.02641603  0.74807629    -0.06700
O368        O  0.49746841  0.01446788  0.80051641    -0.88200
H369        H  0.47668751  0.49050958  0.82866553    -0.06500
H370        H  0.99695412  0.08329499  0.73104550    -0.06700
C371        C  0.49375520  0.49188701  0.81334059     0.86900
C372        C  0.06557348  0.00900391  0.74515957     0.87500
C373        C  0.99909792  0.06670154  0.74678073     0.87500
H374        H  0.41868755  0.47400460  0.75074765    -0.06600
O375        O  0.47680641  0.43623051  0.73954209    -0.75700
Mg376      Mg  0.46093823  0.04176601  0.79294639     1.58000
H377        H  0.50403927  0.41607507  0.76630438    -0.06700
C378        C  0.07714684  0.48887083  0.83432831     0.92500
O379        O  0.02766358  0.06787778  0.82614064    -0.82900
C380        C  0.00588536  0.08359178  0.82943012     0.92600
O381        O  0.07854900  0.43138991  0.71216085    -0.82900
Mg382      Mg  0.46019076  0.46487439  0.70404343     1.58200
O383        O  0.05992574  0.01002303  0.83183348    -0.81200
O384        O  0.42209572  0.02961112  0.68073427    -0.82900
O385        O  0.00400095  0.26242917  0.55199375    -0.88500
C386        C  0.43446894  0.25064424  0.00180598     0.87500
Mg387      Mg  0.03711352  0.29203023  0.54258625     1.58100
O388        O  0.48593723  0.19623309  0.50097203    -0.88200
O389        O  0.49746459  0.21827758  0.56414654    -0.75600
C390        C  0.07185854  0.26566033  0.90835389     0.92600
O391        O  0.47231935  0.30802987  0.51175954    -0.75400
O392        O  0.07151179  0.28679304  0.92522536    -0.82900
Mg393      Mg  0.46118185  0.27893176  0.54926670     1.58000
C394        C  0.01114721  0.16596177  0.92063289     0.92500
O395        O  0.44625036  0.25460788  0.58828017    -0.81100
H396        H  0.00947206  0.16698608  0.52101336    -0.06500
C397        C  0.49284026  0.25497099  0.93586723     0.87500
O398        O  0.06620821  0.25717262  0.52501843    -0.75600
O399        O  0.45085458  0.24497119  0.52150662    -0.88400
O400        O  0.48911621  0.16888249  0.93615322    -0.80800
C401        C  0.41651901  0.16891716  0.99160591     0.92600
C402        C  0.43062291  0.23319878  0.59323450     0.92500
Mg403      Mg  0.04252029  0.21789150  0.95289060     1.58000
O404        O  0.05893711  0.24271080  0.91443903    -0.81100
O405        O  0.03086875  0.18862316  0.99031029    -0.75400
O406        O  0.42148178  0.18158482  0.51528597    -0.81200
O407        O  0.47077784  0.31486520  0.57890268    -0.82900
O408        O  0.08125281  0.31574751  0.98703729    -0.81300
C409        C  0.00851359  0.18311714  0.50470193     0.86900
O410        O  0.05292314  0.25182868  0.98073807    -0.88400
O411        O  0.49958456  0.23419080  0.95037331    -0.88500
O412        O  0.00542226  0.27852506  0.93861958    -0.75600
Mg413      Mg  0.45917982  0.20310548  0.53776867     1.58000
O414        O  0.43119595  0.17345870  0.96941916    -0.82900
H415        H  0.02786966  0.24329283  0.58159270    -0.06700
O416        O  0.01714615  0.29992131  0.00162853    -0.88200
H417        H  0.49404508  0.32951677  0.98160893    -0.06500
H418        H  0.08599689  0.23054305  0.49757452    -0.06700
C419        C  0.49475131  0.31332172  0.99786748     0.86900
C420        C  0.01044955  0.24166195  0.56667052     0.87500
C421        C  0.06933647  0.24610067  0.50074055     0.87500
H422        H  0.47541704  0.25321679  0.92096363    -0.06600
O423        O  0.43742425  0.23962885  0.97749719    -0.75700
Mg424      Mg  0.04359888  0.29388414  0.96482280     1.58000
H425        H  0.41791772  0.26628990  0.00510316    -0.06700
C426        C  0.49170081  0.33176784  0.58019619     0.92500
O427        O  0.07097623  0.32379778  0.53280779    -0.82900
C428        C  0.08527030  0.32904266  0.51059179     0.92600
O429        O  0.43019734  0.21186669  0.57658405    -0.82900
Mg430      Mg  0.46618754  0.20461764  0.95979681     1.58200
O431        O  0.01396591  0.32780702  0.56540054    -0.81200
O432        O  0.03227299  0.18257889  0.92252741    -0.82900
O433        O  0.21525771  0.28229938  0.72276413    -0.88500
C434        C  0.30147004  0.29054457  0.73469178     0.87500
Mg435      Mg  0.18585577  0.28070981  0.75807649     1.58100
O436        O  0.27915605  0.22228424  0.71434652    -0.88200
O437        O  0.22838487  0.25737728  0.68591003    -0.75600
C438        C  0.23939236  0.18393655  0.84607113     0.92600
O439        O  0.24721076  0.31597074  0.77241204    -0.75400
O440        O  0.22501340  0.20687044  0.84697064    -0.82900
Mg441      Mg  0.24534659  0.31672965  0.72344848     1.58000
C442        C  0.31333058  0.15202183  0.75850640     0.92500
O443        O  0.24598558  0.32420462  0.67501957    -0.81100
H444        H  0.26069891  0.19619334  0.68653562    -0.06500
C445        C  0.29161432  0.23315970  0.79958015     0.87500
O446        O  0.18441830  0.23191658  0.75586572    -0.75600
O447        O  0.27963152  0.28606116  0.72074481    -0.88400
O448        O  0.32031571  0.17292683  0.74276654    -0.81200
C449        C  0.34687481  0.23874387  0.68382760     0.92600
C450        C  0.26114668  0.31670653  0.65388483     0.92500
Mg451      Mg  0.25517155  0.18528172  0.77657609     1.58000
O452        O  0.25415422  0.17716885  0.82443335    -0.81100
O453        O  0.25342330  0.18616719  0.72780530    -0.75400
O454        O  0.32611383  0.25520465  0.67763107    -0.81200
O455        O  0.20874530  0.34873076  0.72545777    -0.82900
O456        O  0.17479936  0.24596729  0.82281189    -0.81300
C457        C  0.26459471  0.20133028  0.70853392     0.86900
O458        O  0.22126647  0.21613514  0.77968459    -0.88400
O459        O  0.28548181  0.21969234  0.77797587    -0.88500
O460        O  0.27253091  0.24433817  0.81509176    -0.75600
Mg461      Mg  0.27751185  0.25729938  0.68512837     1.58000
O462        O  0.34628768  0.22290768  0.70573156    -0.82900
H463        H  0.18706026  0.26551832  0.69583281    -0.06700
O464        O  0.22181674  0.27978187  0.78659378    -0.88200
H465        H  0.24069092  0.30614527  0.81388492    -0.06500
H466        H  0.19285213  0.19008746  0.76197093    -0.06700
C467        C  0.23647077  0.30081494  0.79199414     0.86900
C468        C  0.20921398  0.26858782  0.70129740     0.87500
C469        C  0.19927461  0.21169614  0.76597292     0.87500
H470        H  0.31379300  0.23609492  0.80502730    -0.06600
O471        O  0.31624751  0.27035774  0.74499797    -0.75700
Mg472      Mg  0.22346181  0.24434384  0.81579191     1.58000
H473        H  0.30781629  0.31216776  0.73873460    -0.06700
C474        C  0.18718824  0.34992342  0.74179424     0.92500
O475        O  0.15473454  0.27911390  0.79547703    -0.82900
C476        C  0.15398561  0.26236904  0.81671258     0.92600
O477        O  0.27606311  0.29416331  0.65399880    -0.82900
Mg478      Mg  0.31502105  0.22151788  0.74292408     1.58200
O479        O  0.18067352  0.32948980  0.75835055    -0.81200
O480        O  0.29132729  0.15281715  0.77425362    -0.82900
O481        O  0.29139453  0.47710617  0.52420574    -0.88500
C482        C  0.20905500  0.48043499  0.54948556     0.87500
Mg483      Mg  0.31421297  0.01563673  0.51669763     1.58100
O484        O  0.22059205  0.46080927  0.97836486    -0.88200
O485        O  0.27959281  0.43812057  0.50245984    -0.75600
C486        C  0.23544335  0.09548646  0.93185337     0.92600
O487        O  0.26016968  0.02398302  0.56309195    -0.75400
O488        O  0.25333380  0.09798383  0.95197675    -0.82900
Mg489      Mg  0.26897261  0.47557097  0.56394086     1.58000
C490        C  0.16872780  0.49696598  0.91604558     0.92500
O491        O  0.27539256  0.42734302  0.57256887    -0.81100
H492        H  0.23709346  0.43470113  0.94931723    -0.06500
C493        C  0.19854611  0.04470198  0.99007093     0.87500
O494        O  0.30690279  0.01133157  0.96842895    -0.75600
O495        O  0.23065132  0.46799957  0.54102194    -0.88400
O496        O  0.16804794  0.48102295  0.93787749    -0.81200
C497        C  0.16184312  0.42425059  0.50967929     0.92600
C498        C  0.26194044  0.40432215  0.56781760     0.92500
Mg499      Mg  0.22770228  0.02462230  0.93676006     1.58000
O500        O  0.22122376  0.07271439  0.92813297    -0.81100
O501        O  0.23677517  0.47615902  0.93764483    -0.75400
O502        O  0.18621111  0.42021186  0.52069252    -0.81200
O503        O  0.30998575  0.48360627  0.58737018    -0.82900
O504        O  0.31135575  0.08147863  0.98104420    -0.81300
C505        C  0.23142331  0.45618517  0.95494534     0.86900
O506        O  0.26630792  0.03263180  0.95959707    -0.88400
O507        O  0.20522171  0.02337931  0.97648420    -0.88500
O508        O  0.21703899  0.06285953  0.99728913    -0.75600
Mg509      Mg  0.23207388  0.43256754  0.51220664     1.58000
O510        O  0.15675118  0.44534323  0.99359110    -0.82900
H511        H  0.31993998  0.45347419  0.50339283    -0.06700
O512        O  0.27562669  0.03977426  0.52223732    -0.88200
H513        H  0.25881698  0.06547041  0.55149141    -0.06500
H514        H  0.29055684  0.01625744  0.92883591    -0.06700
C515        C  0.26482983  0.04411426  0.54573339     0.86900
C516        C  0.29806740  0.45612142  0.51008369     0.87500
C517        C  0.28802761  0.02031944  0.95125768     0.87500
H518        H  0.17663991  0.04759821  0.99654913    -0.06600
O519        O  0.19012172  0.48952178  0.53244332    -0.75700
Mg520      Mg  0.26479254  0.06839242  0.98823730     1.58000
H521        H  0.20672307  0.48457344  0.57191077    -0.06700
C522        C  0.32758059  0.00358052  0.58475418     0.92500
O523        O  0.33927565  0.05534666  0.50863900    -0.82900
C524        C  0.33515676  0.07703282  0.99328198     0.92600
O525        O  0.24398981  0.40260264  0.54769178    -0.82900
Mg526      Mg  0.18214348  0.48507382  0.98437810     1.58200
O527        O  0.32741295  0.02009120  0.56336623    -0.81200
O528        O  0.18648925  0.01610761  0.91331363    -0.82900
C529        C  0.26333541  0.33639634  0.62962450    -0.00300
C530        C  0.28398820  0.35772803  0.63084260    -0.12200
C531        C  0.28529103  0.37906092  0.61011907     0.01900
C532        C  0.26526022  0.37953392  0.58754787    -0.00400
C533        C  0.24558356  0.35696156  0.58568423    -0.12100
C534        C  0.24449292  0.33559425  0.60646733     0.01800
H535        H  0.29880046  0.35809740  0.64854086     0.14800
H536        H  0.23016091  0.35647606  0.56855335     0.14800
C537        C  0.22347416  0.31345270  0.60402136     0.36500
C538        C  0.30724766  0.40019344  0.61309684     0.36400
N539        N  0.20671495  0.29561363  0.60203772    -0.43900
N540        N  0.32499577  0.41695239  0.61573799    -0.43900
C541        C  0.23321572  0.11864527  0.91041842    -0.00300
C542        C  0.23565478  0.14723254  0.91869892    -0.12200
C543        C  0.23707833  0.16917502  0.89836295     0.01900
C544        C  0.23703851  0.16253021  0.86916910    -0.00400
C545        C  0.23435138  0.13404095  0.86104806    -0.12100
C546        C  0.23224372  0.11229830  0.88111692     0.01800
H547        H  0.23679476  0.15240030  0.94107536     0.14800
H548        H  0.23396048  0.12863386  0.83868162     0.14800
C549        C  0.23090085  0.08349917  0.87078325     0.36500
C550        C  0.23985715  0.19806277  0.90793550     0.36400
N551        N  0.22986037  0.06046205  0.86244918    -0.43900
N552        N  0.24207294  0.22123622  0.91562463    -0.43900
C553        C  0.39509985  0.14611085  0.99120395    -0.00300
C554        C  0.39671385  0.12563873  0.01272270    -0.12200
C555        C  0.37869926  0.10214811  0.01290500     0.01900
C556        C  0.35757577  0.09921945  0.99158321    -0.00400
C557        C  0.35621577  0.11971066  0.96978679    -0.12100
C558        C  0.37506818  0.14275492  0.96918833     0.01800
H559        H  0.41271442  0.12766988  0.02924246     0.14800
H560        H  0.34076386  0.11749513  0.45300400     0.14800
C561        C  0.37344315  0.16263064  0.44592692     0.36500
C562        C  0.38252762  0.08178909  0.03555551     0.36400
N563        N  0.37197144  0.17858961  0.42728292    -0.43900
N564        N  0.38605914  0.06544562  0.05358432    -0.43900
C565        C  0.10473851  0.35346711  0.51092782    -0.00300
C566        C  0.12316330  0.35758917  0.53397955    -0.12200
C567        C  0.14093182  0.38141569  0.53509626     0.01900
C568        C  0.14009603  0.40175761  0.51288159    -0.00400
C569        C  0.12032058  0.39813789  0.99051300    -0.12100
C570        C  0.10271756  0.37439910  0.98939036     0.01800
H571        H  0.12385532  0.34204086  0.55097378     0.14800
H572        H  0.11917336  0.41359548  0.97346105     0.14800
C573        C  0.08202991  0.37274762  0.96671160     0.36500
C574        C  0.15945058  0.38453555  0.55940389     0.36400
N575        N  0.06531643  0.37142774  0.94869320    -0.43900
N576        N  0.17422350  0.38702840  0.57891845    -0.43900
C577        C  0.12923708  0.26305745  0.83638288    -0.00300
C578        C  0.11878056  0.28936757  0.84588415    -0.12200
C579        C  0.09936864  0.29106378  0.86860505     0.01900
C580        C  0.08956908  0.26597904  0.88193390    -0.00400
C581        C  0.09860961  0.23969279  0.87085794    -0.12100
C582        C  0.11833439  0.23805564  0.84865195     0.01800
H583        H  0.12697433  0.30875078  0.83656388     0.14800
H584        H  0.09126394  0.22008153  0.88039524     0.14800
C585        C  0.12730475  0.21034484  0.83910014     0.36500
C586        C  0.09028835  0.31878962  0.87790085     0.36400
N587        N  0.13445298  0.18811503  0.83151315    -0.43900
N588        N  0.08310506  0.34109057  0.88524599    -0.43900
C589        C  0.37139766  0.23737849  0.66368175    -0.00300
C590        C  0.37748567  0.26151825  0.64736270    -0.12200
C591        C  0.39712096  0.26058525  0.62506356     0.01900
C592        C  0.41118687  0.23483209  0.61817917    -0.00400
C593        C  0.40575389  0.21076905  0.63487588    -0.12100
C594        C  0.38644002  0.21192638  0.65772575     0.01800
H595        H  0.36623685  0.28119909  0.65157335     0.14800
H596        H  0.41653912  0.19099972  0.63001367     0.14800
C597        C  0.38177081  0.18634512  0.67387061     0.36500
C598        C  0.40095476  0.28617856  0.60855607     0.36400
N599        N  0.37831624  0.16579820  0.68686018    -0.43900
N600        N  0.40396467  0.30669951  0.59538527    -0.43900
C601        C  0.33288373  0.12710703  0.75931636    -0.00300
C602        C  0.34721934  0.11974560  0.73435165    -0.12200
C603        C  0.37007874  0.10063153  0.73462565     0.01900
C604        C  0.37943645  0.08829362  0.76057517    -0.00400
C605        C  0.36419019  0.09460722  0.78544682    -0.12100
C606        C  0.34085063  0.11347574  0.78496115     0.01800
H607        H  0.34109619  0.12980313  0.71452671     0.14800
H608        H  0.37076301  0.08510875  0.80539543     0.14800
C609        C  0.32640845  0.11945740  0.81132026     0.36500
C610        C  0.38457080  0.09585719  0.70800790     0.36400
N611        N  0.31469165  0.12408197  0.83241578    -0.43900
N612        N  0.39603243  0.09227991  0.68657641    -0.43900
C613        C  0.16749748  0.37463047  0.74010083    -0.00300
C614        C  0.15860034  0.38445462  0.71326980    -0.12200
C615        C  0.13566592  0.40360339  0.71044346     0.01900
C616        C  0.12145072  0.41372783  0.73490203    -0.00400
C617        C  0.13200092  0.40540603  0.76173116    -0.12100
C618        C  0.15443905  0.38596465  0.76448094     0.01800
H619        H  0.16853994  0.37592709  0.69434067     0.14800
H620        H  0.12185536  0.41306219  0.78091770     0.14800
C621        C  0.16337842  0.37771252  0.79266561     0.36500
C622        C  0.12704512  0.41203464  0.68223947     0.36400
N623        N  0.17047205  0.37117106  0.81528567    -0.43900
N624        N  0.12023210  0.41872711  0.65957442    -0.43900
C625        C  0.09911631  0.48939371  0.85707226    -0.00300
C626        C  0.10593209  0.01593691  0.86862326    -0.12200
C627        C  0.12874451  0.01879799  0.88739469     0.01900
C628        C  0.14543354  0.49460407  0.89517949    -0.00400
C629        C  0.13724606  0.46784387  0.88517715    -0.12100
C630        C  0.11455499  0.46503151  0.86596569     0.01800
H631        H  0.09475567  0.03492232  0.86175500     0.14800
H632        H  0.14887628  0.44914528  0.89210111     0.14800
C633        C  0.10771259  0.43693547  0.85595486     0.36500
C634        C  0.13524293  0.04676469  0.89801772     0.36400
N635        N  0.10239263  0.41438598  0.84792890    -0.43900
N636        N  0.14036348  0.06915990  0.90656869    -0.43900
C637        C  0.35112054  0.00586057  0.60527857    -0.00300
C638        C  0.36551231  0.98091951  0.61271878    -0.12200
C639        C  0.38901194  0.98137449  0.63084951     0.01900
C640        C  0.39896968  0.00754466  0.64176407    -0.00400
C641        C  0.38458146  0.03265058  0.63397023    -0.12100
C642        C  0.36077357  0.03198793  0.61598618     0.01800
H643        H  0.35846369  0.96086297  0.60405608     0.14800
H644        H  0.39156461  0.05282968  0.64238090     0.14800
C645        C  0.34581067  0.05812857  0.60999048     0.36500
C646        C  0.40122753  0.95431984  0.63874743     0.36400
N647        N  0.33378950  0.07908532  0.60527036    -0.43900
N648        N  0.41062339  0.93245161  0.64496239    -0.43900
C649        C  0.49268489  0.39410522  0.64675086    -0.00300
C650        C  0.01389445  0.39445054  0.62589888    -0.12200
C651        C  0.01312513  0.37572642  0.60299958     0.01900
C652        C  0.49114634  0.35523156  0.60121995    -0.00400
C653        C  0.46952784  0.35542323  0.62197080    -0.12100
C654        C  0.46998340  0.37477960  0.64441287     0.01800
H655        H  0.03079006  0.41007695  0.62705696     0.14800
H656        H  0.45247601  0.33998397  0.62114630     0.14800
C657        C  0.44746735  0.37372236  0.66526595     0.36500
C658        C  0.03488721  0.37876535  0.58152794     0.36400
N659        N  0.42939338  0.37292740  0.68194260    -0.43900
N660        N  0.05228688  0.38147951  0.56434558    -0.43900
C661        C  0.00703413  0.10615912  0.85152510    -0.00300
C662        C  0.03348177  0.11244007  0.86428665    -0.12200
C663        C  0.03550751  0.13137417  0.88706942     0.01900
C664        C  0.01063577  0.14425051  0.89794945    -0.00400
C665        C  0.98430486  0.13822251  0.88514486    -0.12100
C666        C  0.98225863  0.11974217  0.86209166     0.01800
H667        H  0.05278645  0.10232388  0.85665517     0.14800
H668        H  0.46507808  0.14851910  0.89284380     0.14800
C669        C  0.45420425  0.11505904  0.85031243     0.36500
C670        C  0.06326934  0.13655435  0.89924921     0.36400
N671        N  0.43170988  0.11159578  0.84085210    -0.43900
N672        N  0.08554969  0.14069437  0.90892746    -0.43900
O673        O  0.05013769  0.50166855  0.26476316    -0.88500
C674        C  0.50110680  0.93267990  0.25008349     0.87500
Mg675      Mg  0.03904655  0.53411342  0.29451226     1.58100
O676        O  0.00155203  0.98531763  0.19702211    -0.88200
O677        O  0.06394794  0.99699678  0.22117458    -0.75600
C678        C  0.40572981  0.56992650  0.26195766     0.92600
O679        O  0.00835680  0.96936867  0.30779979    -0.75400
O680        O  0.42205951  0.57025127  0.28366928    -0.82900
Mg681      Mg  0.04753761  0.95844618  0.28021159     1.58000
C682        C  0.42142359  0.50802621  0.16395664     0.92500
O683        O  0.08731452  0.94311637  0.25677057    -0.81100
H684        H  0.02141774  0.50788972  0.16785917    -0.06500
C685        C  0.43347047  0.99134231  0.25268982     0.87500
O686        O  0.02265633  0.56316903  0.25885637    -0.75600
O687        O  0.02130783  0.94862231  0.24492365    -0.88400
O688        O  0.43915293  0.98834873  0.16634388    -0.81200
C689        C  0.49389940  0.91679344  0.16807058     0.92600
C690        C  0.09480686  0.93100814  0.23381526     0.92500
Mg691      Mg  0.45153723  0.53999220  0.21670789     1.58000
O692        O  0.41185482  0.55535873  0.24011845    -0.81100
O693        O  0.48995897  0.52897086  0.18846885    -0.75400
O694        O  0.01769664  0.92219183  0.18000175    -0.81200
O695        O  0.07650350  0.96800755  0.31692349    -0.82900
O696        O  0.48324463  0.57955397  0.31513889    -0.81300
C697        C  0.00473639  0.50692853  0.18363172     0.86900
O698        O  0.47860965  0.55060021  0.25150899    -0.88400
O699        O  0.44934896  0.99804608  0.23294429    -0.88500
O700        O  0.43513990  0.50384808  0.27681563    -0.75600
Mg701      Mg  0.03878774  0.95919962  0.20372371     1.58000
O702        O  0.47144572  0.93100958  0.17291396    -0.82900
H703        H  0.07993777  0.52642942  0.24739559    -0.06700
O704        O  0.49783367  0.51464397  0.30057481    -0.88200
H705        H  0.47610850  0.98973800  0.32814798    -0.06500
H706        H  0.99642194  0.58299908  0.23081248    -0.06700
C707        C  0.49330416  0.99127306  0.31298134     0.86900
C708        C  0.06535815  0.50894649  0.24470942     0.87500
C709        C  0.99879729  0.56646916  0.24658227     0.87500
H710        H  0.41854025  0.97418331  0.24984975    -0.06600
O711        O  0.47683757  0.93646011  0.23887108    -0.75700
Mg712      Mg  0.46121007  0.54174583  0.29297600     1.58000
H713        H  0.50385872  0.91592933  0.26555815    -0.06700
C714        C  0.07653909  0.98816224  0.33465354     0.92500
O715        O  0.02792155  0.56817371  0.32577149    -0.82900
C716        C  0.00606860  0.58378150  0.32911239     0.92600
O717        O  0.07885689  0.93168663  0.21183301    -0.82900
Mg718      Mg  0.46043361  0.96537438  0.20349750     1.58200
O719        O  0.06058659  0.51049274  0.33138131    -0.81200
O720        O  0.42193927  0.52894096  0.18082603    -0.82900
O721        O  0.00422832  0.76245312  0.05211777    -0.88500
C722        C  0.43483639  0.75079624  0.50193155     0.87500
Mg723      Mg  0.03727894  0.79204974  0.04282132     1.58100
O724        O  0.48638002  0.69628082  0.00089764    -0.88200
O725        O  0.49790112  0.71821572  0.06413081    -0.75600
C726        C  0.07223193  0.76643297  0.40842255     0.92600
O727        O  0.47261863  0.80798908  0.01182456    -0.75400
O728        O  0.07195535  0.78739745  0.42549378    -0.82900
Mg729      Mg  0.46147846  0.77889437  0.04930694     1.58000
C730        C  0.01130722  0.66664011  0.41995248     0.92500
O731        O  0.44669222  0.75451651  0.08828139    -0.81100
H732        H  0.00984597  0.66688372  0.02075974    -0.06500
C733        C  0.49304244  0.75563060  0.43591746     0.87500
O734        O  0.06639158  0.75719632  0.02523352    -0.75600
O735        O  0.45128593  0.74491690  0.02154365    -0.88400
O736        O  0.48939138  0.66941608  0.43562250    -0.80800
C737        C  0.41689374  0.66911776  0.49139408     0.92600
C738        C  0.43107284  0.73309911  0.09319320     0.92500
Mg739      Mg  0.04267599  0.71842385  0.45246829     1.58000
O740        O  0.05903153  0.74355459  0.41417541    -0.81100
O741        O  0.03112376  0.68883590  0.48966353    -0.75400
O742        O  0.42196627  0.68155039  0.01522470    -0.81200
O743        O  0.47083197  0.81498000  0.07886629    -0.82900
O744        O  0.08172957  0.81569633  0.48743882    -0.81300
C745        C  0.00888086  0.68310304  0.00453700     0.86900
O746        O  0.05311812  0.75209983  0.48063974    -0.88400
O747        O  0.49978905  0.73469836  0.45021181    -0.88500
O748        O  0.00568433  0.77920127  0.43877134    -0.75600
Mg749      Mg  0.45965108  0.70305588  0.03772708     1.58000
O750        O  0.43153640  0.67369408  0.46918460    -0.82900
H751        H  0.02815780  0.74330604  0.08166007    -0.06700
O752        O  0.01751091  0.80015968  0.50187090    -0.88200
H753        H  0.49447761  0.82979507  0.48196259    -0.06500
H754        H  0.08615635  0.73055052  0.99778354    -0.06700
C755        C  0.49516409  0.81353839  0.49815977     0.86900
C756        C  0.01074227  0.74166205  0.06673350     0.87500
C757        C  0.06951783  0.74613132  0.00094808     0.87500
H758        H  0.47556089  0.75405284  0.42106086    -0.06600
O759        O  0.43768093  0.73986576  0.47756981    -0.75700
Mg760      Mg  0.04395814  0.79427265  0.46505220     1.58000
H761        H  0.41826741  0.76639153  0.50537276    -0.06700
C762        C  0.49174411  0.83189684  0.08013890     0.92500
O763        O  0.07107571  0.82381616  0.03319817    -0.82900
C764        C  0.08549934  0.82894737  0.01105136     0.92600
O765        O  0.43067505  0.71177465  0.07653187    -0.82900
Mg766      Mg  0.46644648  0.70499715  0.45956813     1.58200
O767        O  0.01405055  0.82780218  0.06553102    -0.81200
O768        O  0.03239649  0.68331064  0.42182966    -0.82900
O769        O  0.21546778  0.78197079  0.22261640    -0.88500
C770        C  0.30169355  0.79058111  0.23400041     0.87500
Mg771      Mg  0.18630399  0.78080314  0.25815785     1.58100
O772        O  0.27958701  0.72208859  0.21420198    -0.88200
O773        O  0.22856908  0.75683909  0.18587344    -0.75600
C774        C  0.24035613  0.68446454  0.34619213     0.92600
O775        O  0.24770115  0.81620419  0.27169398    -0.75400
O776        O  0.22593428  0.70737558  0.34713276    -0.82900
Mg777      Mg  0.24542223  0.81647131  0.22272842     1.58000
C778        C  0.31392828  0.65225782  0.25871997     0.92500
O779        O  0.24544931  0.82330703  0.17420558    -0.81100
H780        H  0.26101934  0.69581924  0.18663596    -0.06500
C781        C  0.29233377  0.73355837  0.29935212     0.87500
O782        O  0.18475929  0.73199020  0.25637286    -0.75600
O783        O  0.27981592  0.78589530  0.22018700    -0.88400
O784        O  0.32097774  0.67312170  0.24296214    -0.81200
C785        C  0.34716512  0.73856464  0.18353441     0.92600
C786        C  0.26093436  0.81598067  0.15324814     0.92500
Mg787      Mg  0.25580071  0.68559415  0.27673894     1.58000
O788        O  0.25515744  0.67776288  0.32457406    -0.81100
O789        O  0.25380627  0.68613581  0.22799416    -0.75400
O790        O  0.32633359  0.75489752  0.17722645    -0.81200
O791        O  0.20877925  0.84846341  0.22463158    -0.82900
O792        O  0.17564708  0.74654701  0.32316215    -0.81300
C793        C  0.26498237  0.70111231  0.20858476     0.86900
O794        O  0.22189812  0.71645730  0.27987809    -0.88400
O795        O  0.28607563  0.72003319  0.27782251    -0.88500
O796        O  0.27334000  0.74479215  0.31492779    -0.75600
Mg797      Mg  0.27773374  0.75692097  0.18481806     1.58000
O798        O  0.34667237  0.72286909  0.20553316    -0.82900
H799        H  0.18724061  0.76475113  0.19598971    -0.06700
O800        O  0.22247999  0.78010762  0.28643619    -0.88200
H801        H  0.24159898  0.80672306  0.31331349    -0.06500
H802        H  0.19330660  0.69021831  0.26273659    -0.06700
C803        C  0.23717726  0.80119575  0.29151267     0.86900
C804        C  0.20940153  0.76801771  0.20130526     0.87500
C805        C  0.19975636  0.71186816  0.26646565     0.87500
H806        H  0.31454315  0.73649481  0.30467379    -0.06600
O807        O  0.31658965  0.77053479  0.24440930    -0.75700
Mg808      Mg  0.22428028  0.74481371  0.31585409     1.58000
H809        H  0.30797463  0.81226210  0.23783151    -0.06700
C810        C  0.18743425  0.84986389  0.24122097     0.92500
O811        O  0.15549394  0.77962292  0.29580369    -0.82900
C812        C  0.15484732  0.76299558  0.31713093     0.92600
O813        O  0.27619422  0.79366999  0.15357583    -0.82900
Mg814      Mg  0.31550897  0.72167266  0.24273114     1.58200
O815        O  0.18114520  0.82961384  0.25808723    -0.81200
O816        O  0.29190726  0.65310663  0.27443190    -0.82900
O817        O  0.29101841  0.97715289  0.02451084    -0.88500
C818        C  0.20883085  0.98049741  0.04999741     0.87500
Mg819      Mg  0.31457185  0.51555347  0.01669841     1.58100
O820        O  0.22022303  0.96103752  0.47866387    -0.88200
O821        O  0.27923600  0.93823958  0.00264675    -0.75600
C822        C  0.23649074  0.59536965  0.43128887     0.92600
O823        O  0.26028946  0.52378597  0.06281933    -0.75400
O824        O  0.25428338  0.59781516  0.45149483    -0.82900
Mg825      Mg  0.26877568  0.97557192  0.06434841     1.58000
C826        C  0.16805879  0.99677919  0.41640670     0.92500
O827        O  0.27516643  0.92724734  0.07292381    -0.81100
H828        H  0.23667425  0.93488340  0.44962685    -0.06500
C829        C  0.19921188  0.54467552  0.48944211     0.87500
O830        O  0.30771473  0.51121248  0.46822400    -0.75600
O831        O  0.23040576  0.96804434  0.04149662    -0.88400
O832        O  0.16753757  0.98089359  0.43827937    -0.81200
C833        C  0.16164039  0.92434233  0.01026492     0.92600
C834        C  0.26169203  0.90427008  0.06796635     0.92500
Mg835      Mg  0.22853850  0.52444881  0.43626815     1.58000
O836        O  0.22234075  0.57257490  0.42743059    -0.81100
O837        O  0.23621192  0.97630910  0.43784209    -0.75400
O838        O  0.18599768  0.92036122  0.02130086    -0.81200
O839        O  0.30987522  0.98370290  0.08767104    -0.82900
O840        O  0.31211462  0.58120633  0.48064136    -0.81300
C841        C  0.23097761  0.95637025  0.45521764     0.86900
O842        O  0.26708926  0.53237984  0.45923457    -0.88400
O843        O  0.20587456  0.52330004  0.47593099    -0.88500
O844        O  0.21772670  0.56281293  0.49665971    -0.75600
Mg845      Mg  0.23176651  0.93272215  0.01254400     1.58000
O846        O  0.15649181  0.94553380  0.49403452    -0.82900
H847        H  0.31957815  0.95359630  0.00363324    -0.06700
O848        O  0.27596959  0.53966657  0.02207393    -0.88200
H849        H  0.25891958  0.56528608  0.05126064    -0.06500
H850        H  0.29147790  0.51602149  0.42856878    -0.06700
C851        C  0.26501330  0.54395008  0.04551085     0.86900
C852        C  0.29770553  0.95621008  0.01033717     0.87500
C853        C  0.28886220  0.52010431  0.45097687     0.87500
H854        H  0.17729378  0.54764360  0.49584661    -0.06600
O855        O  0.18984681  0.98956650  0.03299673    -0.75700
Mg856      Mg  0.26552484  0.56823021  0.48776521     1.58000
H857        H  0.20655806  0.98466224  0.07242359    -0.06700
C858        C  0.32768678  0.50336286  0.08461895     0.92500
O859        O  0.33971796  0.55529307  0.00883722    -0.82900
C860        C  0.33580384  0.57693600  0.49314383     0.92600
O861        O  0.24377697  0.90270995  0.04781030    -0.82900
Mg862      Mg  0.18174051  0.98519935  0.48472528     1.58200
O863        O  0.32740170  0.52009364  0.06341590    -0.81200
O864        O  0.18737810  0.51610171  0.41271375    -0.82900
C865        C  0.26312515  0.83568685  0.12901461    -0.00300
C866        C  0.28429462  0.85653679  0.12993605    -0.12200
C867        C  0.28548819  0.87813320  0.10947787     0.01900
C868        C  0.26492003  0.87928316  0.08743327    -0.00400
C869        C  0.24470156  0.85716747  0.08581005    -0.12100
C870        C  0.24363794  0.83560597  0.10637813     0.01800
H871        H  0.29954375  0.85639115  0.14726835     0.14800
H872        H  0.22883235  0.85721987  0.06907708     0.14800
C873        C  0.22204732  0.81398122  0.10421563     0.36500
C874        C  0.30788790  0.89883589  0.11216625     0.36400
N875        N  0.20482525  0.79656184  0.10242565    -0.43900
N876        N  0.32598855  0.91525415  0.11456998    -0.43900
C877        C  0.23422593  0.61870744  0.41003513    -0.00300
C878        C  0.23715583  0.64719819  0.41852373    -0.12200
C879        C  0.23857300  0.66930462  0.39836953     0.01900
C880        C  0.23795271  0.66292591  0.36913883    -0.00400
C881        C  0.23476360  0.63455298  0.36079857    -0.12100
C882        C  0.23272737  0.61264294  0.38069249     0.01800
H883        H  0.23872286  0.65215911  0.44092182     0.14800
H884        H  0.23396961  0.62937007  0.33838769     0.14800
C885        C  0.23094110  0.58396727  0.37009342     0.36500
C886        C  0.24201021  0.69805647  0.40812793     0.36400
N887        N  0.22955897  0.56103839  0.36151667    -0.43900
N888        N  0.24477715  0.72112031  0.41596268    -0.43900
C889        C  0.39547126  0.64628232  0.49104199    -0.00300
C890        C  0.39662286  0.62627290  0.51302882    -0.12200
C891        C  0.37864838  0.60275103  0.51331765     0.01900
C892        C  0.35810863  0.59923968  0.49153995    -0.00400
C893        C  0.35714291  0.61929704  0.46932813    -0.12100
C894        C  0.37588578  0.64243422  0.46870189     0.01800
H895        H  0.41221619  0.62869556  0.52987503     0.14800
H896        H  0.34185247  0.61677300  0.95260161     0.14800
C897        C  0.37450603  0.66189550  0.94539074     0.36500
C898        C  0.38182177  0.58302185  0.53660704     0.36400
N899        N  0.37323192  0.67760602  0.92652330    -0.43900
N900        N  0.38482860  0.56720582  0.55518712    -0.43900
C901        C  0.10492209  0.85337608  0.01138710    -0.00300
C902        C  0.12296775  0.85780603  0.03468280    -0.12200
C903        C  0.14059113  0.88172802  0.03583239     0.01900
C904        C  0.13998564  0.90181315  0.01339857    -0.00400
C905        C  0.12039956  0.89818289  0.49089125    -0.12100
C906        C  0.10297620  0.87433866  0.48972228     0.01800
H907        H  0.12345188  0.84244755  0.05185491     0.14800
H908        H  0.11929960  0.91355577  0.47375865     0.14800
C909        C  0.08244584  0.87250560  0.46691664     0.36500
C910        C  0.15867632  0.88526353  0.06040403     0.36400
N911        N  0.06584909  0.87105434  0.44880307    -0.43900
N912        N  0.17309074  0.88811049  0.08013293    -0.43900
C913        C  0.13018327  0.76380360  0.33689696    -0.00300
C914        C  0.11990984  0.79015011  0.34650115    -0.12200
C915        C  0.10037645  0.79188514  0.36912208     0.01900
C916        C  0.09020938  0.76680282  0.38218403    -0.00400
C917        C  0.09917822  0.74050981  0.37107145    -0.12100
C918        C  0.11907717  0.73883195  0.34903043     0.01800
H919        H  0.12831488  0.80951098  0.33732326     0.14800
H920        H  0.09163284  0.72090518  0.38046501     0.14800
C921        C  0.12801627  0.71110055  0.33951583     0.36500
C922        C  0.09157301  0.81963821  0.37859880     0.36400
N923        N  0.13515937  0.68885282  0.33197837    -0.43900
N924        N  0.08464265  0.84196992  0.38608695    -0.43900
C925        C  0.37170019  0.73718723  0.16345107    -0.00300
C926        C  0.37800104  0.76140867  0.14735678    -0.12200
C927        C  0.39770412  0.76051064  0.12512662     0.01900
C928        C  0.41162011  0.73470917  0.11810631    -0.00400
C929        C  0.40596544  0.71055713  0.13459262    -0.12100
C930        C  0.38656614  0.71167159  0.15735942     0.01800
H931        H  0.36686127  0.78112507  0.15168744     0.14800
H932        H  0.41661513  0.69074604  0.12960751     0.14800
C933        C  0.38156745  0.68597788  0.17322575     0.36500
C934        C  0.40173157  0.78620018  0.10881764     0.36400
N935        N  0.37783612  0.66532834  0.18597239    -0.43900
N936        N  0.40487843  0.80680328  0.09580976    -0.43900
C937        C  0.33339517  0.62729985  0.25957942    -0.00300
C938        C  0.34743745  0.61963151  0.23454725    -0.12200
C939        C  0.37017102  0.60037317  0.23477903     0.01900
C940        C  0.37964806  0.58815918  0.26074019    -0.00400
C941        C  0.36471440  0.59482831  0.28570574    -0.12100
C942        C  0.34154979  0.61389987  0.28528289     0.01800
H943        H  0.34119899  0.62957013  0.21469833     0.14800
H944        H  0.37143387  0.58549059  0.30568219     0.14800
C945        C  0.32755651  0.62040245  0.31175899     0.36500
C946        C  0.38447470  0.59538041  0.20810411     0.36400
N947        N  0.31622590  0.62547077  0.33296067    -0.43900
N948        N  0.39580778  0.59165632  0.18663138    -0.43900
C949        C  0.16775397  0.87460476  0.23953681    -0.00300
C950        C  0.15864500  0.88431212  0.21273426    -0.12200
C951        C  0.13575377  0.90353606  0.21000121     0.01900
C952        C  0.12172819  0.91380106  0.23452227    -0.00400
C953        C  0.13253005  0.90562364  0.26130119    -0.12100
C954        C  0.15497787  0.88616583  0.26396057     0.01800
H955        H  0.16840417  0.87566467  0.19376685     0.14800
H956        H  0.12259913  0.91343016  0.28053734     0.14800
C957        C  0.16427401  0.87818158  0.29210689     0.36500
C958        C  0.12701167  0.91192176  0.18182059     0.36400
N959        N  0.17168191  0.87186740  0.31469140    -0.43900
N960        N  0.12012672  0.91859148  0.15917019    -0.43900
C961        C  0.09837207  0.98876669  0.35752228    -0.00300
C962        C  0.10667558  0.51627305  0.36811525    -0.12200
C963        C  0.12952545  0.51906709  0.38685883     0.01900
C964        C  0.14469767  0.99422392  0.39560511    -0.00400
C965        C  0.13640556  0.96737498  0.38587723    -0.12100
C966        C  0.11368436  0.96444099  0.36669590     0.01800
H967        H  0.09541891  0.53527001  0.36141239     0.14800
H968        H  0.14796490  0.94870568  0.39299368     0.14800
C969        C  0.10659734  0.93627343  0.35705983     0.36500
C970        C  0.13599707  0.54697838  0.39764504     0.36400
N971        N  0.10104433  0.91366706  0.34935556    -0.43900
N972        N  0.14108828  0.56933308  0.40631933    -0.43900
C973        C  0.35127815  0.50548747  0.10505831    -0.00300
C974        C  0.36611070  0.48059992  0.11176605    -0.12200
C975        C  0.38959152  0.48094733  0.12992358     0.01900
C976        C  0.39901772  0.50696506  0.14166660    -0.00400
C977        C  0.38429428  0.53204448  0.13441347    -0.12100
C978        C  0.36053297  0.53147772  0.11638850     0.01800
H979        H  0.35940502  0.46067820  0.10252116     0.14800
H980        H  0.39092612  0.55211669  0.14333297     0.14800
C981        C  0.34518520  0.55753169  0.11101905     0.36500
C982        C  0.40238318  0.45390066  0.13686968     0.36400
N983        N  0.33286577  0.57842233  0.10679976    -0.43900
N984        N  0.41224216  0.43202120  0.14227344    -0.43900
C985        C  0.49283618  0.89480789  0.14604291    -0.00300
C986        C  0.01349848  0.89549368  0.12465839    -0.12200
C987        C  0.01252338  0.87661463  0.10189059     0.01900
C988        C  0.49105487  0.85559406  0.10086475    -0.00400
C989        C  0.46983626  0.85557867  0.12200944    -0.12100
C990        C  0.47038752  0.87513514  0.14426774     0.01800
H991        H  0.03007915  0.91147873  0.12531048     0.14800
H992        H  0.45307347  0.83981170  0.12165257     0.14800
C993        C  0.44824789  0.87395479  0.16551125     0.36500
C994        C  0.03348835  0.88006294  0.07970469     0.36400
N995        N  0.43047067  0.87308704  0.18249731    -0.43900
N996        N  0.05020850  0.88309306  0.06191620    -0.43900
C997        C  0.00717172  0.60642784  0.35113162    -0.00300
C998        C  0.03370401  0.61329533  0.36338691    -0.12200
C999        C  0.03575261  0.63236064  0.38606682     0.01900
C1000       C  0.01082913  0.64484800  0.39730853    -0.00400
C1001       C  0.98440155  0.63819136  0.38502009    -0.12100
C1002       C  0.98231322  0.61949610  0.36214170     0.01800
H1003       H  0.05306009  0.60352193  0.35544503     0.14800
H1004       H  0.46518306  0.64792321  0.39317616     0.14800
C1005       C  0.45423111  0.61382994  0.35118581     0.36500
C1006       C  0.06361121  0.63802622  0.39779756     0.36400
N1007       N  0.43161216  0.60956618  0.34237899    -0.43900
N1008       N  0.08596775  0.64253364  0.40712753    -0.43900
O1009       O  0.05012157  0.50160030  0.76490624    -0.88500
C1010       C  0.50122906  0.93285064  0.75026605     0.87500
Mg1011     Mg  0.03911285  0.53396917  0.79478100     1.58100
O1012       O  0.00153864  0.98528269  0.69698462    -0.88200
O1013       O  0.06396483  0.99710854  0.72112717    -0.75600
C1014       C  0.40575308  0.57001310  0.76214777     0.92600
O1015       O  0.00836430  0.96987661  0.80789487    -0.75400
O1016       O  0.42206221  0.57036146  0.78388066    -0.82900
Mg1017     Mg  0.04754751  0.95877281  0.78041033     1.58000
C1018       C  0.42150824  0.50831060  0.66407287     0.92500
O1019       O  0.08734191  0.94323530  0.75710806    -0.81100
H1020       H  0.02151085  0.50803918  0.66803737    -0.06500
C1021       C  0.43353283  0.99144959  0.75269543     0.87500
O1022       O  0.02277999  0.56318698  0.75922497    -0.75600
O1023       O  0.02134207  0.94885220  0.74512304    -0.88400
O1024       O  0.43894211  0.98813379  0.66636193    -0.81200
C1025       C  0.49407651  0.91661816  0.66830489     0.92600
C1026       C  0.09484612  0.93109950  0.73416950     0.92500
Mg1027     Mg  0.45158227  0.54017211  0.71690858     1.58000
O1028       O  0.41190281  0.55542608  0.74033341    -0.81100
O1029       O  0.49002628  0.52919691  0.68867899    -0.75400
O1030       O  0.01777263  0.92206924  0.68036848    -0.81200
O1031       O  0.07639661  0.96844830  0.81718945    -0.82900
O1032       O  0.48328553  0.57948648  0.81556610    -0.81300
C1033       C  0.00481671  0.50708550  0.68379694     0.86900
O1034       O  0.47864272  0.55069847  0.75177513    -0.88400
O1035       O  0.44937163  0.99808837  0.73289594    -0.88500
O1036       O  0.43509682  0.50394931  0.77691694    -0.75600
Mg1037     Mg  0.03881846  0.95922440  0.70387964     1.58000
O1038       O  0.47158821  0.93083703  0.67303055    -0.82900
H1039       H  0.07997621  0.52634511  0.74760899    -0.06700
O1040       O  0.49778360  0.51459908  0.80079679    -0.88200
H1041       H  0.47615655  0.99024643  0.82810639    -0.06500
H1042       H  0.99659970  0.58313177  0.73120998    -0.06700
C1043       C  0.49336306  0.99170310  0.81294403     0.86900
C1044       C  0.06537121  0.50889033  0.74488012     0.87500
C1045       C  0.99894328  0.56654275  0.74692194     0.87500
H1046       H  0.41861754  0.97426223  0.74995143    -0.06600
O1047       O  0.47697467  0.93654305  0.73899313    -0.75700
Mg1048     Mg  0.46119238  0.54177696  0.79321393     1.58000
H1049       H  0.50398600  0.91615470  0.76579852    -0.06700
C1050       C  0.07643255  0.98871542  0.83479573     0.92500
O1051       O  0.02805288  0.56791630  0.82618617    -0.82900
C1052       C  0.00623314  0.58355183  0.82960735     0.92600
O1053       O  0.07891392  0.93177669  0.71217142    -0.82900
Mg1054     Mg  0.46047427  0.96530908  0.70353498     1.58200
O1055       O  0.06062582  0.51019338  0.83157298    -0.81200
O1056       O  0.42194760  0.52919948  0.68097688    -0.82900
O1057       O  0.00448730  0.76220883  0.55192487    -0.88500
C1058       C  0.43486119  0.75075346  0.00191976     0.87500
Mg1059     Mg  0.03750096  0.79185936  0.54259852     1.58100
O1060       O  0.48631100  0.69628350  0.50050157    -0.88200
O1061       O  0.49801835  0.71793170  0.56381127    -0.75600
C1062       C  0.07263219  0.76603824  0.90889266     0.92600
O1063       O  0.47266917  0.80800078  0.51205467    -0.75400
O1064       O  0.07228382  0.78703756  0.92591797    -0.82900
Mg1065     Mg  0.46165589  0.77870937  0.54942796     1.58000
C1066       C  0.01163693  0.66618529  0.92066950     0.92500
O1067       O  0.44698138  0.75412125  0.58835299    -0.81100
H1068       H  0.00991459  0.66684737  0.52006350    -0.06500
C1069       C  0.49336134  0.75534058  0.93608097     0.87500
O1070       O  0.06651307  0.75710366  0.52467341    -0.75600
O1071       O  0.45131262  0.74487274  0.52148859    -0.88400
O1072       O  0.48964563  0.66913664  0.93619557    -0.80800
C1073       C  0.41693040  0.66911163  0.99172599     0.92600
C1074       C  0.43120459  0.73277617  0.59310051     0.92500
Mg1075     Mg  0.04295250  0.71811558  0.95305662     1.58000
O1076       O  0.05952913  0.74311683  0.91472174    -0.81100
O1077       O  0.03120241  0.68870471  0.99034007    -0.75400
O1078       O  0.42192723  0.68148454  0.51493332    -0.81200
O1079       O  0.47121476  0.81464953  0.57916013    -0.82900
O1080       O  0.08182000  0.81560809  0.98780994    -0.81300
C1081       C  0.00886728  0.68314318  0.50392287     0.86900
O1082       O  0.05327440  0.75193585  0.98114129    -0.88400
O1083       O  0.50004209  0.73447702  0.95050414    -0.88500
O1084       O  0.00601809  0.77883122  0.93893596    -0.75600
Mg1085     Mg  0.45967198  0.70292061  0.53744185     1.58000
O1086       O  0.43163728  0.67356484  0.96952836    -0.82900
H1087       H  0.02853222  0.74286816  0.58124951    -0.06700
O1088       O  0.01751936  0.80011154  0.00195430    -0.88200
H1089       H  0.49454523  0.82965388  0.98172600    -0.06500
H1090       H  0.08611658  0.73063334  0.49694226    -0.06700
C1091       C  0.49517680  0.81348884  0.99801680     0.86900
C1092       C  0.01104069  0.74133108  0.56639885     0.87500
C1093       C  0.06949345  0.74618837  0.50030459     0.87500
H1094       H  0.47594767  0.75369296  0.92115383    -0.06600
O1095       O  0.43780128  0.73975392  0.97760376    -0.75700
Mg1096     Mg  0.04415572  0.79404719  0.96532886     1.58000
H1097       H  0.41826798  0.76634669  0.00525643    -0.06700
C1098       C  0.49215249  0.83154488  0.58042316     0.92500
O1099       O  0.07123649  0.82366460  0.53292863    -0.82900
C1100       C  0.08552251  0.82892289  0.51072348     0.92600
O1101       O  0.43073694  0.71153771  0.57632889    -0.82900
Mg1102     Mg  0.46663509  0.70481724  0.95987947     1.58200
O1103       O  0.01444040  0.82751720  0.56566103    -0.81200
O1104       O  0.03273554  0.68285796  0.92250967    -0.82900
O1105       O  0.21551350  0.78212768  0.72279049    -0.88500
C1106       C  0.30181765  0.79054276  0.73410785     0.87500
Mg1107     Mg  0.18633959  0.78087853  0.75833498     1.58100
O1108       O  0.27954152  0.72214159  0.71414542    -0.88200
O1109       O  0.22857432  0.75709900  0.68596274    -0.75600
C1110       C  0.24037149  0.68431889  0.84614006     0.92600
O1111       O  0.24781601  0.81615386  0.77195823    -0.75400
O1112       O  0.22598867  0.70724799  0.84712822    -0.82900
Mg1113     Mg  0.24553200  0.81657257  0.72299855     1.58000
C1114       C  0.31381678  0.65217744  0.75857298     0.92500
O1115       O  0.24556855  0.82355951  0.67449974    -0.81100
H1116       H  0.26087631  0.69596897  0.68655162    -0.06500
C1117       C  0.29235112  0.73344637  0.79930605     0.87500
O1118       O  0.18475930  0.73207432  0.75639979    -0.75600
O1119       O  0.27990298  0.78594160  0.72032359    -0.88400
O1120       O  0.32084401  0.67300420  0.74275499    -0.81200
C1121       C  0.34714055  0.73846809  0.68338480     0.92600
C1122       C  0.26099005  0.81625330  0.65348835     0.92500
Mg1123     Mg  0.25574000  0.68554979  0.77665155     1.58000
O1124       O  0.25509943  0.67760072  0.82447778    -0.81100
O1125       O  0.25371298  0.68620628  0.72790120    -0.75400
O1126       O  0.32635649  0.75489801  0.67715226    -0.81200
O1127       O  0.20889686  0.84860035  0.72501705    -0.82900
O1128       O  0.17567244  0.74639155  0.82324000    -0.81300
C1129       C  0.26488347  0.70120759  0.70850578     0.86900
O1130       O  0.22187783  0.71643595  0.77986950    -0.88400
O1131       O  0.28607331  0.71994337  0.77776647    -0.88500
O1132       O  0.27337327  0.74466468  0.81491522    -0.75600
Mg1133     Mg  0.27774058  0.75706753  0.68485891     1.58000
O1134       O  0.34662325  0.72275190  0.70537165    -0.82900
H1135       H  0.18725890  0.76504618  0.69610401    -0.06700
O1136       O  0.22251494  0.78006892  0.78659269    -0.88200
H1137       H  0.24167553  0.80657439  0.81354866    -0.06500
H1138       H  0.19326494  0.69027653  0.76264130    -0.06700
C1139       C  0.23724936  0.80111623  0.79173100     0.86900
C1140       C  0.20942523  0.76825707  0.70143218     0.87500
C1141       C  0.19973419  0.71190873  0.76643786     0.87500
H1142       H  0.31456555  0.73637542  0.80460999    -0.06600
O1143       O  0.31669597  0.77043377  0.74442185    -0.75700
Mg1144     Mg  0.22430986  0.74470740  0.81590757     1.58000
H1145       H  0.30815475  0.81219892  0.73798674    -0.06700
C1146       C  0.18753072  0.84998036  0.74158701     0.92500
O1147       O  0.15553995  0.77958504  0.79600267    -0.82900
C1148       C  0.15488741  0.76287961  0.81727159     0.92600
O1149       O  0.27622410  0.79392188  0.65373065    -0.82900
Mg1150     Mg  0.31549129  0.72157436  0.74263254     1.58200
O1151       O  0.18121763  0.82970444  0.75841467    -0.81200
O1152       O  0.29180946  0.65305540  0.77429793    -0.82900
O1153       O  0.29095018  0.97730031  0.52463607    -0.88500
C1154       C  0.20861862  0.98056550  0.54967392     0.87500
Mg1155     Mg  0.31483839  0.51535592  0.51626681     1.58100
O1156       O  0.22003073  0.96113892  0.97887199    -0.88200
O1157       O  0.27933668  0.93832405  0.50278554    -0.75600
C1158       C  0.23646176  0.59527556  0.93129026     0.92600
O1159       O  0.26074995  0.52386487  0.56266182    -0.75400
O1160       O  0.25414445  0.59779250  0.95158397    -0.82900
Mg1161     Mg  0.26849174  0.97569387  0.56435218     1.58000
C1162       C  0.16757530  0.99714706  0.91696896     0.92500
O1163       O  0.27495874  0.92741726  0.57298223    -0.81100
H1164       H  0.23624758  0.93500596  0.94968689    -0.06500
C1165       C  0.19904065  0.54448647  0.98923450     0.87500
O1166       O  0.30779004  0.51140900  0.96861240    -0.75600
O1167       O  0.23024650  0.96810339  0.54131770    -0.88400
O1168       O  0.16711551  0.98121849  0.93881329    -0.81200
C1169       C  0.16168973  0.92427613  0.50989229     0.92600
C1170       C  0.26153746  0.90441090  0.56804547     0.92500
Mg1171     Mg  0.22873997  0.52434015  0.93625541     1.58000
O1172       O  0.22240030  0.57243497  0.92739125    -0.81100
O1173       O  0.23579134  0.97645393  0.93798186    -0.75400
O1174       O  0.18602288  0.92031647  0.52098778    -0.81200
O1175       O  0.30946577  0.98381425  0.58784316    -0.82900
O1176       O  0.31185537  0.58141235  0.98108451    -0.81300
C1177       C  0.23062931  0.95649312  0.95535242     0.86900
O1178       O  0.26713255  0.53242015  0.95941884    -0.88400
O1179       O  0.20588329  0.52312094  0.97579829    -0.88500
O1180       O  0.21743277  0.56270623  0.99654848    -0.75600
Mg1181     Mg  0.23181958  0.93271665  0.51245275     1.58000
O1182       O  0.15639134  0.94564902  0.99448847    -0.82900
H1183       H  0.31964061  0.95377561  0.50389716    -0.06700
O1184       O  0.27634974  0.53961692  0.52184347    -0.88200
H1185       H  0.25955007  0.56535541  0.55106530    -0.06500
H1186       H  0.29176354  0.51620049  0.92887080    -0.06700
C1187       C  0.26551766  0.54398355  0.54531936     0.86900
C1188       C  0.29773620  0.95635341  0.51051219     0.87500
C1189       C  0.28900221  0.52024458  0.95126828     0.87500
H1190       H  0.17706789  0.54737459  0.99548889    -0.06600
O1191       O  0.18971575  0.98957674  0.53255328    -0.75700
Mg1192     Mg  0.26526408  0.56826752  0.98793745     1.58000
H1193       H  0.20622860  0.98479185  0.57207618    -0.06700
C1194       C  0.32815149  0.50332139  0.58428127     0.92500
O1195       O  0.34005515  0.55500544  0.50823276    -0.82900
C1196       C  0.33548996  0.57720183  0.99370749     0.92600
O1197       O  0.24368112  0.90277540  0.54784452    -0.82900
Mg1198     Mg  0.18161372  0.98534134  0.98519359     1.58200
O1199       O  0.32804048  0.51982339  0.56289548    -0.81200
O1200       O  0.18773166  0.51585323  0.91250617    -0.82900
C1201       C  0.26308553  0.83596744  0.62925275    -0.00300
C1202       C  0.28428511  0.85679270  0.63005764    -0.12200
C1203       C  0.28541189  0.87836452  0.60956748     0.01900
C1204       C  0.26477228  0.87948579  0.58758557    -0.00400
C1205       C  0.24450460  0.85740985  0.58609457    -0.12100
C1206       C  0.24347708  0.83590340  0.60671978     0.01800
H1207       H  0.29960815  0.85665080  0.64732513     0.14800
H1208       H  0.22856890  0.85745813  0.56942531     0.14800
C1209       C  0.22177835  0.81436799  0.60474214     0.36500
C1210       C  0.30781377  0.89907913  0.61216145     0.36400
N1211       N  0.20445828  0.79702880  0.60311682    -0.43900
N1212       N  0.32590566  0.91551794  0.61449254    -0.43900
C1213       C  0.23420727  0.61860439  0.91001850    -0.00300
C1214       C  0.23734708  0.64708123  0.91848080    -0.12200
C1215       C  0.23879970  0.66917129  0.89831644     0.01900
C1216       C  0.23798512  0.66279106  0.86909249    -0.00400
C1217       C  0.23458161  0.63444015  0.86077197    -0.12100
C1218       C  0.23251199  0.61254476  0.88068068     0.01800
H1219       H  0.23906006  0.65204396  0.94086808     0.14800
H1220       H  0.23363459  0.62926565  0.83836492     0.14800
C1221       C  0.23046062  0.58388699  0.87008379     0.36500
C1222       C  0.24248420  0.69789975  0.90805361     0.36400
N1223       N  0.22885869  0.56097435  0.86150284    -0.43900
N1224       N  0.24545525  0.72094124  0.91587853    -0.43900
C1225       C  0.39538482  0.64637268  0.99143436    -0.00300
C1226       C  0.39610316  0.62671714  0.01375895    -0.12200
C1227       C  0.37799514  0.60330055  0.01417382     0.01900
C1228       C  0.35778401  0.59951286  0.99214826    -0.00400
C1229       C  0.35719198  0.61924264  0.96963792    -0.12100
C1230       C  0.37605356  0.64228670  0.96891110     0.01800
H1231       H  0.41145804  0.62932760  0.03079135     0.14800
H1232       H  0.34157846  0.61703354  0.45246520     0.14800
C1233       C  0.37395510  0.66238133  0.44549459     0.36500
C1234       C  0.38065769  0.58398222  0.03786280     0.36400
N1235       N  0.37237317  0.67836032  0.42687638    -0.43900
N1236       N  0.38325191  0.56849855  0.05677821    -0.43900
C1237       C  0.10491417  0.85336844  0.51106476    -0.00300
C1238       C  0.12306721  0.85771200  0.53428958    -0.12200
C1239       C  0.14068503  0.88163253  0.53544870     0.01900
C1240       C  0.14000238  0.90178090  0.51307085    -0.00400
C1241       C  0.12051694  0.89811370  0.99112144    -0.12100
C1242       C  0.10311707  0.87425271  0.98994237     0.01800
H1243       H  0.12363150  0.84229143  0.55140427     0.14800
H1244       H  0.11950959  0.91342121  0.97392459     0.14800
C1245       C  0.08273959  0.87231097  0.96701293     0.36500
C1246       C  0.15882718  0.88510335  0.55998727     0.36400
N1247       N  0.06626351  0.87077288  0.94879879    -0.43900
N1248       N  0.17327154  0.88789781  0.57970182    -0.43900
C1249       C  0.13025705  0.76366122  0.83707406    -0.00300
C1250       C  0.12026726  0.78997904  0.84701613    -0.12200
C1251       C  0.10084015  0.79163315  0.86972700     0.01900
C1252       C  0.09050915  0.76649802  0.88257420    -0.00400
C1253       C  0.09917717  0.74025344  0.87111156    -0.12100
C1254       C  0.11895354  0.73865485  0.84894553     0.01800
H1255       H  0.12882215  0.80936398  0.83802884     0.14800
H1256       H  0.09147557  0.72061257  0.88029692     0.14800
C1257       C  0.12753629  0.71097088  0.83898908     0.36500
C1258       C  0.09234033  0.81936887  0.87951751     0.36400
N1259       N  0.13437580  0.68876148  0.83107485    -0.43900
N1260       N  0.08566068  0.84169202  0.88724723    -0.43900
C1261       C  0.37164902  0.73701270  0.66324052    -0.00300
C1262       C  0.37788533  0.76115529  0.64699294    -0.12200
C1263       C  0.39761530  0.76018873  0.62478215     0.01900
C1264       C  0.41164175  0.73440475  0.61793496    -0.00400
C1265       C  0.40602668  0.71032134  0.63453559    -0.12100
C1266       C  0.38659192  0.71150021  0.65728016     0.01800
H1267       H  0.36669129  0.78086793  0.65119837     0.14800
H1268       H  0.41675205  0.69052005  0.62967180     0.14800
C1269       C  0.38166106  0.68587042  0.67327270     0.36500
C1270       C  0.40158164  0.78578236  0.60830727     0.36400
N1271       N  0.37798697  0.66526876  0.68611461    -0.43900
N1272       N  0.40468773  0.80630176  0.59515720    -0.43900
C1273       C  0.33330831  0.62724292  0.75951432    -0.00300
C1274       C  0.34739909  0.61953552  0.73452420    -0.12200
C1275       C  0.37016680  0.60032016  0.73484093     0.01900
C1276       C  0.37965326  0.58821708  0.76085578    -0.00400
C1277       C  0.36466801  0.59491892  0.78577960    -0.12100
C1278       C  0.34144816  0.61392167  0.78526478     0.01800
H1279       H  0.34116463  0.62940372  0.71463838     0.14800
H1280       H  0.37137529  0.58564642  0.80579008     0.14800
C1281       C  0.32736214  0.62042092  0.81169286     0.36500
C1282       C  0.38446067  0.59522933  0.70817825     0.36400
N1283       N  0.31594749  0.62548195  0.83285160    -0.43900
N1284       N  0.39576764  0.59141683  0.68670721    -0.43900
C1285       C  0.16783902  0.87471875  0.73990153    -0.00300
C1286       C  0.15866268  0.88435511  0.71309828    -0.12200
C1287       C  0.13575425  0.90355877  0.71036608     0.01900
C1288       C  0.12177255  0.91388551  0.73488815    -0.00400
C1289       C  0.13263465  0.90577482  0.76166572    -0.12100
C1290       C  0.15510385  0.88632995  0.76432400     0.01800
H1291       H  0.16838234  0.87566261  0.69413139     0.14800
H1292       H  0.12274029  0.91362861  0.78090099     0.14800
C1293       C  0.16447801  0.87841766  0.79246446     0.36500
C1294       C  0.12693861  0.91184710  0.68217985     0.36400
N1295       N  0.17195665  0.87216257  0.81504236    -0.43900
N1296       N  0.11998565  0.91843700  0.65952694    -0.43900
C1297       C  0.09807442  0.98929941  0.85784390    -0.00300
C1298       C  0.10687974  0.51596509  0.86808769    -0.12200
C1299       C  0.12980971  0.51876436  0.88673017     0.01900
C1300       C  0.14418132  0.99464288  0.89619852    -0.00400
C1301       C  0.13577772  0.96780287  0.88654962    -0.12100
C1302       C  0.11316218  0.96492180  0.86724287     0.01800
H1303       H  0.09549847  0.53494575  0.86154988     0.14800
H1304       H  0.14719677  0.94909726  0.89379438     0.14800
C1305       C  0.10597154  0.93675431  0.85768652     0.36500
C1306       C  0.13621700  0.54664835  0.89762597     0.36400
N1307       N  0.10033596  0.91414735  0.85004479    -0.43900
N1308       N  0.14126556  0.56897816  0.90638847    -0.43900
C1309       C  0.35164863  0.50556972  0.60483806    -0.00300
C1310       C  0.36603177  0.48062063  0.61224676    -0.12200
C1311       C  0.38933960  0.48101926  0.63061296     0.01900
C1312       C  0.39911672  0.50715053  0.64179251    -0.00400
C1313       C  0.38482992  0.53228122  0.63390669    -0.12100
C1314       C  0.36120434  0.53166923  0.61569120     0.01800
H1315       H  0.35910346  0.46059904  0.60340352     0.14800
H1316       H  0.39172796  0.55243556  0.64243969     0.14800
C1317       C  0.34630988  0.55782798  0.60961368     0.36500
C1318       C  0.40152670  0.45393556  0.63844915     0.36400
N1319       N  0.33434799  0.57880138  0.60482035    -0.43900
N1320       N  0.41089135  0.43203716  0.64459938    -0.43900
C1321       C  0.49312844  0.89452827  0.64635309    -0.00300
C1322       C  0.01415502  0.89485824  0.62538940    -0.12200
C1323       C  0.01336729  0.87591271  0.60266513     0.01900
C1324       C  0.49155338  0.85519245  0.60123489    -0.00400
C1325       C  0.47013696  0.85536285  0.62218383    -0.12100
C1326       C  0.47059643  0.87496426  0.64441104     0.01800
H1327       H  0.03090910  0.91065248  0.62627458     0.14800
H1328       H  0.45325178  0.83972855  0.62167800     0.14800
C1329       C  0.44826150  0.87393904  0.66545698     0.36500
C1330       C  0.03483478  0.87902752  0.58091117     0.36400
N1331       N  0.43033371  0.87318799  0.68229078    -0.43900
N1332       N  0.05198077  0.88181814  0.56348947    -0.43900
C1333       C  0.00738887  0.60607428  0.85176464    -0.00300
C1334       C  0.03391761  0.61272972  0.86416372    -0.12200
C1335       C  0.03599676  0.63172497  0.88690694     0.01900
C1336       C  0.01111552  0.64437038  0.89804979    -0.00400
C1337       C  0.98469082  0.63787940  0.88566456    -0.12100
C1338       C  0.98256820  0.61923649  0.86274641     0.01800
H1339       H  0.05324420  0.60285082  0.85628242     0.14800
H1340       H  0.46544413  0.64805273  0.89349085     0.14800
C1341       C  0.45442442  0.61411393  0.85139421     0.36500
C1342       C  0.06382494  0.63714848  0.89882456     0.36400
N1343       N  0.43181758  0.61008155  0.84244602    -0.43900
N1344       N  0.08615031  0.64145675  0.90832357    -0.43900
O1345       O  0.55005643  0.00134393  0.26510080    -0.88500
C1346       C  0.00125008  0.43262681  0.25071156     0.87500
Mg1347     Mg  0.53878302  0.03347933  0.29512982     1.58100
O1348       O  0.50121790  0.48466103  0.19705163    -0.88200
O1349       O  0.56368982  0.49681300  0.22075520    -0.75600
C1350       C  0.90561935  0.07002207  0.26211498     0.92600
O1351       O  0.50872954  0.46997940  0.30808214    -0.75400
O1352       O  0.92179661  0.07017160  0.28395322    -0.82900
Mg1353     Mg  0.54769424  0.45889082  0.28033230     1.58000
C1354       C  0.92176982  0.00891372  0.16380634     0.92500
O1355       O  0.58733156  0.44342429  0.25689376    -0.81100
H1356       H  0.52196503  0.00879002  0.16813864    -0.06500
C1357       C  0.93357599  0.49104117  0.25321132     0.87500
O1358       O  0.52277006  0.06296600  0.25964824    -0.75600
O1359       O  0.52127467  0.44868232  0.24530963    -0.88400
O1360       O  0.93844452  0.48719400  0.16684386    -0.81200
C1361       C  0.99369577  0.41583178  0.16887383     0.92600
C1362       C  0.59471951  0.43102571  0.23407313     0.92500
Mg1363     Mg  0.95170746  0.04051225  0.21685352     1.58000
O1364       O  0.91193698  0.05566583  0.24019545    -0.81100
O1365       O  0.99029612  0.02969014  0.18872808    -0.75400
O1366       O  0.51743269  0.42137215  0.18081743    -0.81200
O1367       O  0.57680004  0.46877487  0.31677993    -0.82900
O1368       O  0.98293604  0.07894045  0.31595651    -0.81300
C1369       C  0.50517940  0.00770264  0.18379293     0.86900
O1370       O  0.97860122  0.05077605  0.25192350    -0.88400
O1371       O  0.94920969  0.49758665  0.23321558    -0.88500
O1372       O  0.93480516  0.00383376  0.27647920    -0.75600
Mg1373     Mg  0.53853692  0.45873540  0.20391580     1.58000
O1374       O  0.97119719  0.43003090  0.17360789    -0.82900
H1375       H  0.58009166  0.02620728  0.24829150    -0.06700
O1376       O  0.99742891  0.01410550  0.30067536    -0.88200
H1377       H  0.97669493  0.49058334  0.32851017    -0.06500
H1378       H  0.49686398  0.08326221  0.23163312    -0.06700
C1379       C  0.99376747  0.49194451  0.31318940     0.86900
C1380       C  0.56547364  0.00881125  0.24526980     0.87500
C1381       C  0.49901055  0.06656133  0.24725353     0.87500
H1382       H  0.91869084  0.47378789  0.25072478    -0.06600
O1383       O  0.97692100  0.43610129  0.23953673    -0.75700
Mg1384     Mg  0.96089943  0.04145703  0.29320065     1.58000
H1385       H  0.00419494  0.41604101  0.26632870    -0.06700
C1386       C  0.57709880  0.48913140  0.33426599     0.92500
O1387       O  0.52758054  0.06727943  0.32665161    -0.82900
C1388       C  0.50580357  0.08298427  0.33002018     0.92600
O1389       O  0.57868624  0.43140178  0.21215024    -0.82900
Mg1390     Mg  0.96018464  0.46463374  0.20399924     1.58200
O1391       O  0.55981912  0.00934599  0.33196462    -0.81200
O1392       O  0.92212888  0.02971417  0.18081678    -0.82900
O1393       O  0.50401696  0.26219210  0.05187852    -0.88500
C1394       C  0.93457807  0.25086175  0.50174693     0.87500
Mg1395     Mg  0.53707157  0.29185181  0.04244840     1.58100
O1396       O  0.98596548  0.19605339  0.00085407    -0.88200
O1397       O  0.99755538  0.21801232  0.06405168    -0.75600
C1398       C  0.57207431  0.26563354  0.40849803     0.92600
O1399       O  0.97229452  0.30781331  0.01183936    -0.75400
O1400       O  0.57165252  0.28677978  0.42535329    -0.82900
Mg1401     Mg  0.96126032  0.27864505  0.04932448     1.58000
C1402       C  0.51120987  0.16580632  0.42089639     0.92500
O1403       O  0.94647218  0.25421401  0.08833142    -0.81100
H1404       H  0.50952138  0.16683249  0.02078600    -0.06500
C1405       C  0.99307061  0.25499324  0.43593527     0.87500
O1406       O  0.56617622  0.25705768  0.02480471    -0.75600
O1407       O  0.95087837  0.24472558  0.02151665    -0.88400
O1408       O  0.98923232  0.16886258  0.43637526    -0.80800
C1409       C  0.91645734  0.16918362  0.49172054     0.92600
C1410       C  0.93072973  0.23286485  0.09318642     0.92500
Mg1411     Mg  0.54261818  0.21786907  0.45303477     1.58000
O1412       O  0.55918847  0.24265394  0.41457664    -0.81100
O1413       O  0.53084288  0.18870235  0.49049779    -0.75400
O1414       O  0.92158168  0.18124099  0.01521649    -0.81200
O1415       O  0.97092437  0.31453605  0.07901669    -0.82900
O1416       O  0.58130490  0.31590569  0.48714219    -0.81300
C1417       C  0.50851112  0.18299223  0.00450591     0.86900
O1418       O  0.55298812  0.25188935  0.48086134    -0.88400
O1419       O  0.99976689  0.23419671  0.45044198    -0.88500
O1420       O  0.50556445  0.27853412  0.43865120    -0.75600
Mg1421     Mg  0.95925170  0.20283831  0.03769039     1.58000
O1422       O  0.93121241  0.17358245  0.46955052    -0.82900
H1423       H  0.52794704  0.24304941  0.08142498    -0.06700
O1424       O  0.51717682  0.30006270  0.50165043    -0.88200
H1425       H  0.99430724  0.32964939  0.48158120    -0.06500
H1426       H  0.58592656  0.23052311  0.99724374    -0.06700
C1427       C  0.99493732  0.31347432  0.49786258     0.86900
C1428       C  0.51050229  0.24141995  0.06653123     0.87500
C1429       C  0.56925509  0.24605126  0.00049417     0.87500
H1430       H  0.97567225  0.25326355  0.42100018    -0.06600
O1431       O  0.93756668  0.23978497  0.47746915    -0.75700
Mg1432     Mg  0.54369113  0.29394421  0.46489631     1.58000
H1433       H  0.91804701  0.26654423  0.50497029    -0.06700
C1434       C  0.99183844  0.33145581  0.08027028     0.92500
O1435       O  0.57088890  0.32365757  0.03264431    -0.82900
C1436       C  0.58513453  0.32892812  0.01040373     0.92600
O1437       O  0.93026326  0.21156898  0.07649186    -0.82900
Mg1438     Mg  0.96629749  0.20468485  0.45989064     1.58200
O1439       O  0.51395036  0.32757928  0.06533291    -0.81200
O1440       O  0.53237695  0.18239656  0.42272841    -0.82900
O1441       O  0.71544896  0.28237528  0.22287384    -0.88500
C1442       C  0.80170028  0.29059123  0.23459373     0.87500
Mg1443     Mg  0.68609886  0.28085371  0.25822477     1.58100
O1444       O  0.77929582  0.22229531  0.21444999    -0.88200
O1445       O  0.72848968  0.25737370  0.18604367    -0.75600
C1446       C  0.73969360  0.18418487  0.34623037     0.92600
O1447       O  0.74750733  0.31612518  0.27239482    -0.75400
O1448       O  0.72528903  0.20710165  0.34711800    -0.82900
Mg1449     Mg  0.74554577  0.31679557  0.22343357     1.58000
C1450       C  0.81352633  0.15209536  0.25870425     0.92500
O1451       O  0.74609179  0.32415382  0.17498714    -0.81100
H1452       H  0.76077605  0.19615632  0.18672619    -0.06500
C1453       C  0.79192591  0.23336380  0.29963873     0.87500
O1454       O  0.68465751  0.23205994  0.25610273    -0.75600
O1455       O  0.77981872  0.28609418  0.22071835    -0.88400
O1456       O  0.82050686  0.17295614  0.24290217    -0.81200
C1457       C  0.84693684  0.23860475  0.18372803     0.92600
C1458       C  0.76122870  0.31661127  0.15385048     0.92500
Mg1459     Mg  0.75543768  0.18546257  0.27679293     1.58000
O1460       O  0.75457315  0.17748110  0.32465587    -0.81100
O1461       O  0.75357551  0.18621829  0.22802972    -0.75400
O1462       O  0.82619600  0.25509987  0.17755733    -0.81200
O1463       O  0.70894602  0.34884154  0.22546129    -0.82900
O1464       O  0.67512853  0.24621300  0.32300563    -0.81300
C1465       C  0.76471550  0.20133630  0.20870618     0.86900
O1466       O  0.72155337  0.21633645  0.27987896    -0.88400
O1467       O  0.78576401  0.21985675  0.27806582    -0.88500
O1468       O  0.77286121  0.24455292  0.31516975    -0.75600
Mg1469     Mg  0.77761265  0.25725527  0.18516671     1.58000
O1470       O  0.84638692  0.22281866  0.20566833    -0.82900
H1471       H  0.68719022  0.26556881  0.19602320    -0.06700
O1472       O  0.72210619  0.27998807  0.28670470    -0.88200
H1473       H  0.74106723  0.30638850  0.31390097    -0.06500
H1474       H  0.69311400  0.19024475  0.26227199    -0.06700
C1475       C  0.73679374  0.30101834  0.29203020     0.86900
C1476       C  0.70935608  0.26863001  0.20144290     0.87500
C1477       C  0.69953780  0.21186310  0.26621911     0.87500
H1478       H  0.81411208  0.23631424  0.30504741    -0.06600
O1479       O  0.81649559  0.27041389  0.24489498    -0.75700
Mg1480     Mg  0.72378036  0.24457667  0.31594198     1.58000
H1481       H  0.80807495  0.31221845  0.23857217    -0.06700
C1482       C  0.68740438  0.35005330  0.24182213     0.92500
O1483       O  0.65500200  0.27930893  0.29565687    -0.82900
C1484       C  0.65428411  0.26257212  0.31690070     0.92600
O1485       O  0.77613524  0.29406222  0.15398343    -0.82900
Mg1486     Mg  0.81522877  0.22156382  0.24294530     1.58200
O1487       O  0.68090772  0.32962755  0.25839575    -0.81200
O1488       O  0.79155242  0.15295908  0.27448540    -0.82900
O1489       O  0.79120966  0.47717594  0.02442518    -0.88500
C1490       C  0.70880897  0.48022076  0.04937440     0.87500
Mg1491     Mg  0.81426974  0.01546538  0.01648501     1.58100
O1492       O  0.72040526  0.46098021  0.47843526    -0.88200
O1493       O  0.77969364  0.43813005  0.00264265    -0.75600
C1494       C  0.73556923  0.09531812  0.43152262     0.92600
O1495       O  0.76048740  0.02395248  0.06318836    -0.75400
O1496       O  0.75332880  0.09786721  0.45175177    -0.82900
Mg1497     Mg  0.76867760  0.47546832  0.06406625     1.58000
C1498       C  0.66839672  0.49730113  0.41629070     0.92500
O1499       O  0.77525959  0.42725721  0.07262012    -0.81100
H1500       H  0.73665028  0.43479876  0.44931099    -0.06500
C1501       C  0.69854152  0.04449421  0.48949503     0.87500
O1502       O  0.80717249  0.01148081  0.46857823    -0.75600
O1503       O  0.73046052  0.46780467  0.04102133    -0.88400
O1504       O  0.66773610  0.48138386  0.43814376    -0.81200
C1505       C  0.66191557  0.42395857  0.00938539     0.92600
C1506       C  0.76189730  0.40419985  0.06780676     0.92500
Mg1507     Mg  0.72805976  0.02438030  0.43638599     1.58000
O1508       O  0.72153608  0.07245670  0.42763873    -0.81100
O1509       O  0.73642434  0.47625459  0.43762559    -0.75400
O1510       O  0.68627276  0.41990710  0.02041847    -0.81200
O1511       O  0.80962738  0.48349848  0.08756469    -0.82900
O1512       O  0.81129099  0.08159568  0.48107761    -0.81300
C1513       C  0.73109447  0.45630574  0.45496205     0.86900
O1514       O  0.76651968  0.03255226  0.45945341    -0.88400
O1515       O  0.70535186  0.02317344  0.47597202    -0.88500
O1516       O  0.71694687  0.06268845  0.49683464    -0.75600
Mg1517     Mg  0.73214187  0.43240654  0.01216419     1.58000
O1518       O  0.65660541  0.44566432  0.49386100    -0.82900
H1519       H  0.81996520  0.45367165  0.00375215    -0.06700
O1520       O  0.77578808  0.03974593  0.02227332    -0.88200
H1521       H  0.75917085  0.06545079  0.05162741    -0.06500
H1522       H  0.79105312  0.01625401  0.42887266    -0.06700
C1523       C  0.76511283  0.04408748  0.04582471     0.86900
C1524       C  0.79804874  0.45622147  0.01033779     0.87500
C1525       C  0.78835486  0.02033377  0.45127174     0.87500
H1526       H  0.67658747  0.04734685  0.49582962    -0.06600
O1527       O  0.68995648  0.48929350  0.03223678    -0.75700
Mg1528     Mg  0.76472264  0.06834825  0.48805310     1.58000
H1529       H  0.70636154  0.48436338  0.07178654    -0.06700
C1530       C  0.82796831  0.00349121  0.08452000     0.92500
O1531       O  0.83941348  0.05504842  0.00827055    -0.82900
C1532       C  0.83499786  0.07731617  0.49355347     0.92600
O1533       O  0.74399139  0.40244707  0.04764762    -0.82900
Mg1534     Mg  0.68205025  0.48535848  0.48459436     1.58200
O1535       O  0.82780318  0.01987383  0.06303696    -0.81200
O1536       O  0.68696760  0.01569161  0.41272584    -0.82900
C1537       C  0.76340755  0.33626249  0.12956375    -0.00300
C1538       C  0.78412524  0.35754011  0.13070284    -0.12200
C1539       C  0.78539099  0.37888046  0.10998429     0.01900
C1540       C  0.76526316  0.37940126  0.08750191    -0.00400
C1541       C  0.74553683  0.35686955  0.08569866    -0.12100
C1542       C  0.74447380  0.33550496  0.10647952     0.01800
H1543       H  0.79900724  0.35787153  0.14834360     0.14800
H1544       H  0.73004522  0.35642439  0.06862817     0.14800
C1545       C  0.72338448  0.31342106  0.10410752     0.36500
C1546       C  0.80740860  0.39997092  0.11286586     0.36400
N1547       N  0.70656333  0.29563437  0.10217141    -0.43900
N1548       N  0.82519998  0.41670142  0.11541806    -0.43900
C1549       C  0.73327473  0.11858049  0.41020682    -0.00300
C1550       C  0.73577898  0.14711913  0.41864759    -0.12200
C1551       C  0.73725340  0.16917298  0.39844116     0.01900
C1552       C  0.73720363  0.16268715  0.36921654    -0.00400
C1553       C  0.73438444  0.13425853  0.36093181    -0.12100
C1554       C  0.73221420  0.11240699  0.38087160     0.01800
H1555       H  0.73695374  0.15216061  0.44105165     0.14800
H1556       H  0.73395261  0.12898573  0.33853317     0.14800
C1557       C  0.73071264  0.08368217  0.37035945     0.36500
C1558       C  0.74009856  0.19799903  0.40817731     0.36400
N1559       N  0.72953651  0.06070805  0.36187258    -0.43900
N1560       N  0.74236174  0.22111928  0.41601055    -0.43900
C1561       C  0.89491145  0.14646203  0.49139280    -0.00300
C1562       C  0.89586106  0.12657217  0.51349321    -0.12200
C1563       C  0.87778130  0.10313512  0.51381909     0.01900
C1564       C  0.85731505  0.09960701  0.49197546    -0.00400
C1565       C  0.85651874  0.11956253  0.46966877    -0.12100
C1566       C  0.87539924  0.14259247  0.46898932     0.01800
H1567       H  0.91139539  0.12900447  0.53039216     0.14800
H1568       H  0.84022334  0.11793508  0.95332386     0.14800
C1569       C  0.87283185  0.16314327  0.94644642     0.36500
C1570       C  0.88079296  0.08349000  0.53719955     0.36400
N1571       N  0.87104950  0.17943132  0.92811577    -0.43900
N1572       N  0.88367602  0.06773093  0.55584623    -0.43900
C1573       C  0.60463382  0.35332279  0.01072322    -0.00300
C1574       C  0.62307302  0.35742344  0.03376594    -0.12200
C1575       C  0.64090389  0.38120278  0.03484854     0.01900
C1576       C  0.64013427  0.40150345  0.01259576    -0.00400
C1577       C  0.62021158  0.39842314  0.49073779    -0.12100
C1578       C  0.60267211  0.37463724  0.48955504     0.01800
H1579       H  0.62372249  0.34189835  0.05078298     0.14800
H1580       H  0.61904064  0.41390659  0.47371076     0.14800
C1581       C  0.58202305  0.37296207  0.46684444     0.36500
C1582       C  0.65939533  0.38433237  0.05917441     0.36400
N1583       N  0.56534372  0.37162243  0.44879641    -0.43900
N1584       N  0.67413603  0.38683337  0.07871178    -0.43900
C1585       C  0.62952918  0.26320511  0.33656641    -0.00300
C1586       C  0.61904229  0.28948640  0.34610618    -0.12200
C1587       C  0.59961562  0.29112442  0.36881892     0.01900
C1588       C  0.58981971  0.26600557  0.38209606    -0.00400
C1589       C  0.59889855  0.23974884  0.37098366    -0.12100
C1590       C  0.61864652  0.23817156  0.34879048     0.01800
H1591       H  0.62722622  0.30889270  0.33682510     0.14800
H1592       H  0.59156341  0.22011525  0.38048182     0.14800
C1593       C  0.62766360  0.21048834  0.33920294     0.36500
C1594       C  0.59053437  0.31883228  0.37816812     0.36400
N1595       N  0.63485359  0.18828237  0.33158528    -0.43900
N1596       N  0.58336081  0.34112197  0.38555644    -0.43900
C1597       C  0.87140458  0.23714907  0.16353164    -0.00300
C1598       C  0.87761719  0.26129618  0.14727371    -0.12200
C1599       C  0.89724981  0.26031329  0.12497430     0.01900
C1600       C  0.91123322  0.23452073  0.11807573    -0.00400
C1601       C  0.90563282  0.21043396  0.13467686    -0.12100
C1602       C  0.88626746  0.21161765  0.15747743     0.01800
H1603       H  0.86645904  0.28101921  0.15152401     0.14800
H1604       H  0.91630454  0.19061765  0.12975889     0.14800
C1605       C  0.88129564  0.18596412  0.17341063     0.36500
C1606       C  0.90113073  0.28588648  0.10844732     0.36400
N1607       N  0.87758170  0.16533788  0.18619773    -0.43900
N1608       N  0.90415793  0.30638403  0.09524426    -0.43900
C1609       C  0.83303956  0.12714547  0.25954118    -0.00300
C1610       C  0.84733116  0.11970197  0.23457752    -0.12200
C1611       C  0.87013703  0.10052298  0.23486038     0.01900
C1612       C  0.87948453  0.08819850  0.26082374    -0.00400
C1613       C  0.86427085  0.09458861  0.28569471    -0.12100
C1614       C  0.84098312  0.11352080  0.28519725     0.01800
H1615       H  0.84119829  0.12972590  0.21474110     0.14800
H1616       H  0.87082626  0.08509603  0.30565156     0.14800
C1617       C  0.82655853  0.11955443  0.31155286     0.36500
C1618       C  0.88456724  0.09564441  0.20822615     0.36400
N1619       N  0.81485289  0.12421624  0.33264606    -0.43900
N1620       N  0.89596948  0.09197550  0.18677812    -0.43900
C1621       C  0.66770201  0.37476720  0.24014973    -0.00300
C1622       C  0.65892665  0.38473428  0.21332727    -0.12200
C1623       C  0.63596987  0.40386308  0.21049212     0.01900
C1624       C  0.62160556  0.41382005  0.23493188    -0.00400
C1625       C  0.63203098  0.40536703  0.26176553    -0.12100
C1626       C  0.65449144  0.38595136  0.26452420     0.01800
H1627       H  0.66897813  0.37633382  0.19440016     0.14800
H1628       H  0.62176445  0.41289486  0.28093993     0.14800
C1629       C  0.66327834  0.37755545  0.29271466     0.36500
C1630       C  0.62748893  0.41246848  0.18229890     0.36400
N1631       N  0.67024317  0.37089222  0.31533905    -0.43900
N1632       N  0.62078781  0.41930812  0.15964450    -0.43900
C1633       C  0.59893521  0.48969413  0.35713173    -0.00300
C1634       C  0.60616744  0.01536399  0.36830990    -0.12200
C1635       C  0.62910217  0.01826841  0.38692381     0.01900
C1636       C  0.64509027  0.49492075  0.39543158    -0.00400
C1637       C  0.63678003  0.46813219  0.38559895    -0.12100
C1638       C  0.61416390  0.46530863  0.36630150     0.01800
H1639       H  0.59485834  0.03432158  0.36158137     0.14800
H1640       H  0.64826992  0.44941685  0.39270764     0.14800
C1641       C  0.60717018  0.43717968  0.35649058     0.36500
C1642       C  0.63553358  0.04622627  0.39760790     0.36400
N1643       N  0.60172245  0.41460300  0.34862807    -0.43900
N1644       N  0.64059798  0.06861216  0.40621548    -0.43900
C1645       C  0.85152383  0.00588043  0.10503227    -0.00300
C1646       C  0.86556811  0.98090538  0.11299463    -0.12200
C1647       C  0.88900622  0.98140353  0.13119328     0.01900
C1648       C  0.89921606  0.00763686  0.14171160    -0.00400
C1649       C  0.88521484  0.03277895  0.13338933    -0.12100
C1650       C  0.86151817  0.03209176  0.11525243     0.01800
H1651       H  0.85829957  0.96077914  0.10468690     0.14800
H1652       H  0.89244209  0.05301070  0.14147217     0.14800
C1653       C  0.84705628  0.05834037  0.10855235     0.36500
C1654       C  0.90089368  0.95435037  0.13958610     0.36400
N1655       N  0.83545104  0.07939015  0.10324856    -0.43900
N1656       N  0.91003622  0.93248882  0.14618807    -0.43900
C1657       C  0.99281449  0.39379007  0.14685607    -0.00300
C1658       C  0.51419142  0.39392644  0.12620096    -0.12200
C1659       C  0.51345743  0.37519108  0.10331149     0.01900
C1660       C  0.99133803  0.35489983  0.10132448    -0.00400
C1661       C  0.96955510  0.35527391  0.12190069    -0.12100
C1662       C  0.96998453  0.37463170  0.14434268     0.01800
H1663       H  0.53122132  0.40939762  0.12749281     0.14800
H1664       H  0.95237387  0.33998636  0.12093111     0.14800
C1665       C  0.94728592  0.37375270  0.16500728     0.36500
C1666       C  0.53549650  0.37799103  0.08208942     0.36400
N1667       N  0.92906314  0.37310426  0.18152908    -0.43900
N1668       N  0.55313422  0.38052589  0.06512206    -0.43900
C1669       C  0.50698746  0.10553423  0.35215695    -0.00300
C1670       C  0.53341836  0.11169285  0.36502892    -0.12200
C1671       C  0.53547456  0.13076398  0.38770706     0.01900
C1672       C  0.51065785  0.14393322  0.39835253    -0.00400
C1673       C  0.48433798  0.13796536  0.38549286    -0.12100
C1674       C  0.48225588  0.11931723  0.36257313     0.01800
H1675       H  0.55268674  0.10139050  0.35755745     0.14800
H1676       H  0.96521290  0.14841752  0.39308200     0.14800
C1677       C  0.95427279  0.11470327  0.35077464     0.36500
C1678       C  0.56319365  0.13576457  0.40005571     0.36400
N1679       N  0.93177081  0.11123141  0.34133563    -0.43900
N1680       N  0.58543635  0.13974622  0.40988670    -0.43900
O1681       O  0.55018201  0.00156769  0.76509070    -0.88500
C1682       C  0.00112902  0.43265677  0.75073212     0.87500
Mg1683     Mg  0.53884677  0.03383010  0.79492868     1.58100
O1684       O  0.50123397  0.48485688  0.69718343    -0.88200
O1685       O  0.56369469  0.49684837  0.72094815    -0.75600
C1686       C  0.90566233  0.07026699  0.76181229     0.92600
O1687       O  0.50863699  0.46990186  0.80817776    -0.75400
O1688       O  0.92187027  0.07049720  0.78361921    -0.82900
Mg1689     Mg  0.54758920  0.45882478  0.78039028     1.58000
C1690       C  0.92159020  0.00874700  0.66376440     0.92500
O1691       O  0.58720548  0.44336207  0.75692442    -0.81100
H1692       H  0.52192528  0.00865314  0.66796943    -0.06500
C1693       C  0.93360096  0.49119493  0.75329992     0.87500
O1694       O  0.52283394  0.06312504  0.75928844    -0.75600
O1695       O  0.52116320  0.44871813  0.74534583    -0.88400
O1696       O  0.93861135  0.48752004  0.66691810    -0.81200
C1697       C  0.99358588  0.41605276  0.66883790     0.92600
C1698       C  0.59457833  0.43098675  0.73408793     0.92500
Mg1699     Mg  0.95170587  0.04055218  0.71659403     1.58000
O1700       O  0.91197930  0.05588336  0.73991032    -0.81100
O1701       O  0.99023729  0.02959090  0.68843865    -0.75400
O1702       O  0.51736924  0.42160598  0.68073490    -0.81200
O1703       O  0.57674986  0.46860485  0.81679718    -0.82900
O1704       O  0.98300983  0.07950220  0.81534386    -0.81300
C1705       C  0.50516677  0.00761550  0.68365597     0.86900
O1706       O  0.97866255  0.05097273  0.75155368    -0.88400
O1707       O  0.94927395  0.49774280  0.73333575    -0.88500
O1708       O  0.93490002  0.00414126  0.77640914    -0.75600
Mg1709     Mg  0.53848863  0.45885691  0.70398728     1.58000
O1710       O  0.97110687  0.43026566  0.67360985    -0.82900
H1711       H  0.58017434  0.02640072  0.74816251    -0.06700
O1712       O  0.99751766  0.01457877  0.80048272    -0.88200
H1713       H  0.97670822  0.49046380  0.82867888    -0.06500
H1714       H  0.49692567  0.08328661  0.73117940    -0.06700
C1715       C  0.99377305  0.49184050  0.81335084     0.86900
C1716       C  0.56556372  0.00898567  0.74521336     0.87500
C1717       C  0.49906752  0.06667023  0.74689040     0.87500
H1718       H  0.91868091  0.47397903  0.75076317    -0.06600
O1719       O  0.97680738  0.43619533  0.73956190    -0.75700
Mg1720     Mg  0.96099383  0.04187076  0.79289304     1.58000
H1721       H  0.00404194  0.41604181  0.76632418    -0.06700
C1722       C  0.57712124  0.48890657  0.83433991     0.92500
O1723       O  0.52759517  0.06774696  0.82625478    -0.82900
C1724       C  0.50581638  0.08345891  0.82955074     0.92600
O1725       O  0.57855199  0.43142674  0.71216527    -0.82900
Mg1726     Mg  0.96018082  0.46483420  0.70406272     1.58200
O1727       O  0.55984841  0.00988393  0.83189767    -0.81200
O1728       O  0.92207111  0.02960122  0.68070389    -0.82900
O1729       O  0.50399796  0.26244495  0.55195918    -0.88500
C1730       C  0.93450057  0.25060576  0.00186507     0.87500
Mg1731     Mg  0.53706651  0.29208111  0.54249393     1.58100
O1732       O  0.98595263  0.19623847  0.50096814    -0.88200
O1733       O  0.99742711  0.21826203  0.56415786    -0.75600
C1734       C  0.57190824  0.26567032  0.90841632     0.92600
O1735       O  0.97240954  0.30804600  0.51174801    -0.75400
O1736       O  0.57155046  0.28679527  0.92529626    -0.82900
Mg1737     Mg  0.96119706  0.27895348  0.54922899     1.58000
C1738       C  0.51113687  0.16595794  0.92064171     0.92500
O1739       O  0.94617745  0.25465287  0.58821179    -0.81100
H1740       H  0.50949677  0.16701162  0.52101481    -0.06500
C1741       C  0.99282353  0.25494577  0.93587914     0.87500
O1742       O  0.56617655  0.25724454  0.52491372    -0.75600
O1743       O  0.95088536  0.24499544  0.52146239    -0.88400
O1744       O  0.98912546  0.16886503  0.93614871    -0.80800
C1745       C  0.91655264  0.16889552  0.99166804     0.92600
C1746       C  0.93056404  0.23323436  0.59316493     0.92500
Mg1747     Mg  0.54251154  0.21789004  0.95290160     1.58000
O1748       O  0.55896996  0.24272202  0.91447343    -0.81100
O1749       O  0.53082506  0.18861695  0.99030625    -0.75400
O1750       O  0.92146574  0.18163244  0.51521941    -0.81200
O1751       O  0.97076995  0.31488535  0.57886855    -0.82900
O1752       O  0.58124916  0.31573411  0.98711075    -0.81300
C1753       C  0.50851231  0.18313328  0.50469559     0.86900
O1754       O  0.55290445  0.25181987  0.98077008    -0.88400
O1755       O  0.99958593  0.23417385  0.95038861    -0.88500
O1756       O  0.50544515  0.27854500  0.93862653    -0.75600
Mg1757     Mg  0.95916375  0.20312309  0.53773569     1.58000
O1758       O  0.93121819  0.17343435  0.96947294    -0.82900
H1759       H  0.52791891  0.24333029  0.58153088    -0.06700
O1760       O  0.51712909  0.29992683  0.00164748    -0.88200
H1761       H  0.99402258  0.32948713  0.98159947    -0.06500
H1762       H  0.58596971  0.23062787  0.49746086    -0.06700
C1763       C  0.99475473  0.31329802  0.99786305     0.86900
C1764       C  0.51047986  0.24168507  0.56663240     0.87500
C1765       C  0.56929542  0.24616883  0.50063682     0.87500
H1766       H  0.97538966  0.25317964  0.92098955    -0.06600
O1767       O  0.93744374  0.23959274  0.97755391    -0.75700
Mg1768     Mg  0.54360660  0.29388545  0.96486403     1.58000
H1769       H  0.91794619  0.26624553  0.00517396    -0.06700
C1770       C  0.99171689  0.33175454  0.58021078     0.92500
O1771       O  0.57089130  0.32386887  0.53265911    -0.82900
C1772       C  0.58516023  0.32912593  0.51042966     0.92600
O1773       O  0.93015795  0.21189602  0.57652286    -0.82900
Mg1774     Mg  0.96620380  0.20459103  0.95983010     1.58200
O1775       O  0.51391707  0.32785799  0.56532587    -0.81200
O1776       O  0.53226861  0.18257204  0.92252168    -0.82900
O1777       O  0.71524230  0.28230847  0.72278577    -0.88500
C1778       C  0.80146270  0.29057416  0.73462992     0.87500
Mg1779     Mg  0.68587396  0.28073345  0.75812430     1.58100
O1780       O  0.77913246  0.22230351  0.71433129    -0.88200
O1781       O  0.72833844  0.25738445  0.68592237    -0.75600
C1782       C  0.73950238  0.18400923  0.84610306     0.92600
O1783       O  0.74723896  0.31601287  0.77238666    -0.75400
O1784       O  0.72511444  0.20693707  0.84700404    -0.82900
Mg1785     Mg  0.74532350  0.31674300  0.72342545     1.58000
C1786       C  0.81335852  0.15207656  0.75849029     0.92500
O1787       O  0.74589853  0.32418437  0.67499190    -0.81100
H1788       H  0.76064588  0.19620031  0.68655108    -0.06500
C1789       C  0.79167612  0.23322017  0.79954612     0.87500
O1790       O  0.68443891  0.23193979  0.75593708    -0.75600
O1791       O  0.77961019  0.28607905  0.72070900    -0.88400
O1792       O  0.82031624  0.17297050  0.74272519    -0.81200
C1793       C  0.84682686  0.23876030  0.68375993     0.92600
C1794       C  0.76107000  0.31669779  0.65386092     0.92500
Mg1795     Mg  0.75521820  0.18533195  0.77660286     1.58000
O1796       O  0.75426802  0.17725033  0.82446525    -0.81100
O1797       O  0.75341503  0.18619107  0.72783282    -0.75400
O1798       O  0.82605879  0.25521565  0.67757523    -0.81200
O1799       O  0.70872179  0.34873986  0.72545241    -0.82900
O1800       O  0.67489124  0.24602356  0.82288416    -0.81300
C1801       C  0.76456510  0.20134667  0.70854293     0.86900
O1802       O  0.72131278  0.21617884  0.77972832    -0.88400
O1803       O  0.78551948  0.21974747  0.77795237    -0.88500
O1804       O  0.77260948  0.24440122  0.81507576    -0.75600
Mg1805     Mg  0.77746615  0.25730879  0.68510560     1.58000
O1806       O  0.84625814  0.22292738  0.70566547    -0.82900
H1807       H  0.68702171  0.26552233  0.69588128    -0.06700
O1808       O  0.72186411  0.27982657  0.78660849    -0.88200
H1809       H  0.74075975  0.30620528  0.81387015    -0.06500
H1810       H  0.69288609  0.19011545  0.76205743    -0.06700
C1811       C  0.73651980  0.30086440  0.79198567     0.86900
C1812       C  0.70917999  0.26859365  0.70132627     0.87500
C1813       C  0.69930836  0.21172775  0.76604111     0.87500
H1814       H  0.81386089  0.23615707  0.80496822    -0.06600
O1815       O  0.81625456  0.27039507  0.74493018    -0.75700
Mg1816     Mg  0.72354122  0.24440197  0.81581991     1.58000
H1817       H  0.80780968  0.31220068  0.73865429    -0.06700
C1818       C  0.68717901  0.34993857  0.74180676     0.92500
O1819       O  0.65478867  0.27914965  0.79555252    -0.82900
C1820       C  0.65406578  0.26241320  0.81679540     0.92600
O1821       O  0.77600649  0.29416843  0.65397849    -0.82900
Mg1822     Mg  0.81502390  0.22155539  0.74287678     1.58200
O1823       O  0.68068224  0.32951251  0.75837938    -0.81200
O1824       O  0.79137493  0.15287622  0.77426337    -0.82900
O1825       O  0.79134964  0.47711869  0.52425417    -0.88500
C1826       C  0.70898939  0.48048740  0.54948671     0.87500
Mg1827     Mg  0.81424162  0.01562235  0.51663236     1.58100
O1828       O  0.72059005  0.46075942  0.97836458    -0.88200
O1829       O  0.77953375  0.43813828  0.50250637    -0.75600
C1830       C  0.73545930  0.09553635  0.93185736     0.92600
O1831       O  0.76018315  0.02395768  0.56300389    -0.75400
O1832       O  0.75332440  0.09802994  0.95200324    -0.82900
Mg1833     Mg  0.76890731  0.47559705  0.56397753     1.58000
C1834       C  0.66871607  0.49691482  0.91605125     0.92500
O1835       O  0.77529712  0.42736198  0.57260721    -0.81100
H1836       H  0.73710061  0.43465379  0.94931983    -0.06500
C1837       C  0.69851218  0.04476826  0.99005069     0.87500
O1838       O  0.80686904  0.01136514  0.96849048    -0.75600
O1839       O  0.73058719  0.46804309  0.54103927    -0.88400
O1840       O  0.66804025  0.48096811  0.93788080    -0.81200
C1841       C  0.66177535  0.42431031  0.50962424     0.92600
C1842       C  0.76183582  0.40434892  0.56784055     0.92500
Mg1843     Mg  0.72769567  0.02466875  0.93675706     1.58000
O1844       O  0.72124437  0.07276463  0.92811059    -0.81100
O1845       O  0.73677782  0.47611133  0.93764637    -0.75400
O1846       O  0.68612569  0.42026882  0.52067726    -0.81200
O1847       O  0.80992229  0.48361451  0.58742246    -0.82900
O1848       O  0.81132929  0.08152495  0.98109883    -0.81300
C1849       C  0.73142583  0.45613704  0.95494660     0.86900
O1850       O  0.76628838  0.03267989  0.95962168    -0.88400
O1851       O  0.70519278  0.02344537  0.97646694    -0.88500
O1852       O  0.71700482  0.06291702  0.99729031    -0.75600
Mg1853     Mg  0.73200565  0.43260950  0.51222391     1.58000
O1854       O  0.65674528  0.44530727  0.99361636    -0.82900
H1855       H  0.81989043  0.45346632  0.50345811    -0.06700
O1856       O  0.77565026  0.03974565  0.52215167    -0.88200
H1857       H  0.75882806  0.06544341  0.55139719    -0.06500
H1858       H  0.79054985  0.01627820  0.92888534    -0.06700
C1859       C  0.76484537  0.04408741  0.54564382     0.86900
C1860       C  0.79801600  0.45612834  0.51013756     0.87500
C1861       C  0.78800843  0.02035345  0.95130320     0.87500
H1862       H  0.67660154  0.04766954  0.99651181    -0.06600
O1863       O  0.69006883  0.48957505  0.53243033    -0.75700
Mg1864     Mg  0.76476297  0.06844038  0.98826687     1.58000
H1865       H  0.70664355  0.48463002  0.57190981    -0.06700
C1866       C  0.82758357  0.00355708  0.58468861     0.92500
O1867       O  0.83928974  0.05535516  0.50858712    -0.82900
C1868       C  0.83512767  0.07707001  0.99333814     0.92600
O1869       O  0.74388818  0.40264493  0.54771129    -0.82900
Mg1870     Mg  0.68214300  0.48502970  0.98437888     1.58200
O1871       O  0.82741019  0.02008730  0.56331534    -0.81200
O1872       O  0.68648742  0.01613943  0.91328411    -0.82900
C1873       C  0.76324380  0.33638539  0.62959995    -0.00300
C1874       C  0.78397370  0.35764723  0.63075341    -0.12200
C1875       C  0.78525988  0.37899550  0.61004464     0.01900
C1876       C  0.76514364  0.37954744  0.58755208    -0.00400
C1877       C  0.74538622  0.35704083  0.58574669    -0.12100
C1878       C  0.74430373  0.33566497  0.60651940     0.01800
H1879       H  0.79885629  0.35795536  0.64839452     0.14800
H1880       H  0.72989632  0.35661706  0.56867421     0.14800
C1881       C  0.72320138  0.31359479  0.60413908     0.36500
C1882       C  0.80729377  0.40005795  0.61294960     0.36400
N1883       N  0.70637519  0.29581247  0.60220707    -0.43900
N1884       N  0.82510465  0.41676008  0.61553120    -0.43900
C1885       C  0.73326691  0.11869832  0.91042454    -0.00300
C1886       C  0.73565625  0.14728609  0.91871774    -0.12200
C1887       C  0.73710822  0.16923443  0.89838999     0.01900
C1888       C  0.73714919  0.16259507  0.86919431    -0.00400
C1889       C  0.73452124  0.13410302  0.86106176    -0.12100
C1890       C  0.73238535  0.11235504  0.88112057     0.01800
H1891       H  0.73673171  0.15244988  0.94109829     0.14800
H1892       H  0.73419205  0.12869752  0.83869399     0.14800
C1893       C  0.73110487  0.08355559  0.87077983     0.36500
C1894       C  0.73982778  0.19812349  0.90797637     0.36400
N1895       N  0.73011444  0.06051815  0.86244041    -0.43900
N1896       N  0.74199621  0.22129772  0.91567695    -0.43900
C1897       C  0.89511675  0.14610688  0.99126877    -0.00300
C1898       C  0.89674189  0.12561127  0.01276346    -0.12200
C1899       C  0.87870904  0.10213501  0.01294248     0.01900
C1900       C  0.85755739  0.09924554  0.99164197    -0.00400
C1901       C  0.85618530  0.11976234  0.96987043    -0.12100
C1902       C  0.87505356  0.14279298  0.96927537     0.01800
H1903       H  0.91276488  0.12761276  0.02926548     0.14800
H1904       H  0.84101910  0.11727230  0.45275073     0.14800
C1905       C  0.87372815  0.16238384  0.44563030     0.36500
C1906       C  0.88255092  0.08174880  0.03556663     0.36400
N1907       N  0.87237420  0.17823374  0.42688507    -0.43900
N1908       N  0.88609164  0.06538328  0.05357376    -0.43900
C1909       C  0.60464842  0.35353664  0.51076994    -0.00300
C1910       C  0.62303232  0.35766071  0.53385422    -0.12200
C1911       C  0.64080742  0.38147965  0.53499892     0.01900
C1912       C  0.64002184  0.40181628  0.51277951    -0.00400
C1913       C  0.62026133  0.39814408  0.99060647    -0.12100
C1914       C  0.60264885  0.37441210  0.98949833     0.01800
H1915       H  0.62368413  0.34212033  0.55085723     0.14800
H1916       H  0.61908646  0.41361508  0.97356853     0.14800
C1917       C  0.58191469  0.37278458  0.96685956     0.36500
C1918       C  0.65927840  0.38459805  0.55934220     0.36400
N1919       N  0.56516339  0.37148288  0.94887454    -0.43900
N1920       N  0.67401221  0.38708744  0.57888633    -0.43900
C1921       C  0.62933155  0.26309266  0.83648147    -0.00300
C1922       C  0.61886515  0.28939902  0.84598188    -0.12200
C1923       C  0.59944916  0.29108785  0.86869937     0.01900
C1924       C  0.58964890  0.26599818  0.88201880    -0.00400
C1925       C  0.59871357  0.23971578  0.87095529    -0.12100
C1926       C  0.61844812  0.23808636  0.84875863     0.01800
H1927       H  0.62705225  0.30878520  0.83666171     0.14800
H1928       H  0.59137667  0.22010216  0.88049452     0.14800
C1929       C  0.62744817  0.21037834  0.83922598     0.36500
C1930       C  0.59036764  0.31881111  0.87800273     0.36400
N1931       N  0.63462212  0.18815047  0.83165708    -0.43900
N1932       N  0.58318642  0.34111003  0.88535625    -0.43900
C1933       C  0.87133743  0.23740057  0.66360217    -0.00300
C1934       C  0.87739663  0.26153578  0.64726563    -0.12200
C1935       C  0.89702803  0.26060719  0.62496443     0.01900
C1936       C  0.91111944  0.23486335  0.61809868    -0.00400
C1937       C  0.90571257  0.21080524  0.63480911    -0.12100
C1938       C  0.88640131  0.21195802  0.65765936     0.01800
H1939       H  0.86613080  0.28120923  0.65146610     0.14800
H1940       H  0.91651861  0.19104398  0.62995893     0.14800
C1941       C  0.88176092  0.18638139  0.67381941     0.36500
C1942       C  0.90083597  0.28619366  0.60843961     0.36400
N1943       N  0.87833145  0.16583696  0.68681944    -0.43900
N1944       N  0.90382616  0.30670943  0.59525598    -0.43900
C1945       C  0.83292330  0.12717301  0.75929847    -0.00300
C1946       C  0.84725241  0.11981461  0.73432870    -0.12200
C1947       C  0.87012576  0.10071842  0.73459839     0.01900
C1948       C  0.87948907  0.08837998  0.76054381    -0.00400
C1949       C  0.86425543  0.09469475  0.78542232    -0.12100
C1950       C  0.84091398  0.11355949  0.78494532     0.01800
H1951       H  0.84111837  0.12986696  0.71450458     0.14800
H1952       H  0.87084224  0.08520319  0.80536975     0.14800
C1953       C  0.82650199  0.11956401  0.81131587     0.36500
C1954       C  0.88463731  0.09597436  0.70798561     0.36400
N1955       N  0.81481242  0.12421086  0.83242146    -0.43900
N1956       N  0.89612198  0.09242480  0.68656171    -0.43900
C1957       C  0.66748345  0.37464271  0.74011531    -0.00300
C1958       C  0.65858975  0.38447082  0.71328467    -0.12200
C1959       C  0.63565789  0.40362229  0.71045785     0.01900
C1960       C  0.62144038  0.41374577  0.73491575    -0.00400
C1961       C  0.63198432  0.40541691  0.76174518    -0.12100
C1962       C  0.65442149  0.38597386  0.76449535     0.01800
H1963       H  0.66853140  0.37594590  0.69435546     0.14800
H1964       H  0.62183641  0.41307131  0.78093120     0.14800
C1965       C  0.66335906  0.37772047  0.79268025     0.36500
C1966       C  0.62704321  0.41205773  0.68225326     0.36400
N1967       N  0.67045222  0.37117814  0.81530022    -0.43900
N1968       N  0.62023571  0.41875296  0.65958739    -0.43900
C1969       C  0.59907941  0.48940759  0.85709623    -0.00300
C1970       C  0.60587594  0.01585829  0.86864542    -0.12200
C1971       C  0.62869857  0.01875304  0.88739921     0.01900
C1972       C  0.64540761  0.49457120  0.89519786    -0.00400
C1973       C  0.63718812  0.46781862  0.88520140    -0.12100
C1974       C  0.61448778  0.46502858  0.86599697     0.01800
H1975       H  0.59464772  0.03482529  0.86180987     0.14800
H1976       H  0.64879917  0.44910820  0.89212541     0.14800
C1977       C  0.60759991  0.43693673  0.85600528     0.36500
C1978       C  0.63513927  0.04672292  0.89804755     0.36400
N1979       N  0.60224058  0.41439019  0.84799715    -0.43900
N1980       N  0.64021223  0.06912128  0.90661826    -0.43900
C1981       C  0.85111904  0.00582654  0.60521160    -0.00300
C1982       C  0.86567013  0.98092013  0.61245324    -0.12200
C1983       C  0.88916787  0.98138345  0.63058849     0.01900
C1984       C  0.89895241  0.00753126  0.64171935    -0.00400
C1985       C  0.88440304  0.03260486  0.63410840    -0.12100
C1986       C  0.86059991  0.03192860  0.61612004     0.01800
H1987       H  0.85874384  0.96088619  0.60363403     0.14800
H1988       H  0.89124611  0.05276528  0.64267458     0.14800
C1989       C  0.84545331  0.05801182  0.61033560     0.36500
C1990       C  0.90157058  0.95434451  0.63824170     0.36400
N1991       N  0.83328212  0.07892027  0.60578594    -0.43900
N1992       N  0.91111481  0.93248320  0.64425181    -0.43900
C1993       C  0.99267177  0.39407109  0.64677302    -0.00300
C1994       C  0.51387690  0.39450232  0.62584596    -0.12200
C1995       C  0.51309816  0.37576744  0.60295369     0.01900
C1996       C  0.99115103  0.35521818  0.60122935    -0.00400
C1997       C  0.96949964  0.35543066  0.62194493    -0.12100
C1998       C  0.96994707  0.37477703  0.64439442     0.01800
H1999       H  0.53075476  0.41014975  0.62697544     0.14800
H2000       H  0.95242949  0.34001286  0.62108903     0.14800
C2001       C  0.94739761  0.37373960  0.66521265     0.36500
C2002       C  0.53482763  0.37882283  0.58145201     0.36400
N2003       N  0.92929554  0.37295951  0.68185978    -0.43900
N2004       N  0.55220076  0.38154936  0.56424500    -0.43900
C2005       C  0.50697583  0.10603547  0.85163723    -0.00300
C2006       C  0.53342994  0.11232257  0.86438458    -0.12200
C2007       C  0.53547212  0.13129790  0.88713234     0.01900
C2008       C  0.51061212  0.14421555  0.89798734    -0.00400
C2009       C  0.48427354  0.13817302  0.88520362    -0.12100
C2010       C  0.48220947  0.11964432  0.86219088     0.01800
H2011       H  0.55272756  0.10218243  0.85676731     0.14800
H2012       H  0.96510280  0.14854709  0.89279759     0.14800
C2013       C  0.95426246  0.11518213  0.85018221     0.36500
C2014       C  0.56323631  0.13647408  0.89930790     0.36400
N2015       N  0.93177595  0.11174100  0.84069513    -0.43900
N2016       N  0.58551807  0.14060871  0.90898524    -0.43900
O2017       O  0.55018148  0.50166931  0.26473305    -0.88500
C2018       C  0.00115385  0.93267605  0.25010096     0.87500
Mg2019     Mg  0.53911329  0.53411460  0.29449418     1.58100
O2020       O  0.50154841  0.98533464  0.19702145    -0.88200
O2021       O  0.56393984  0.99699034  0.22119451    -0.75600
C2022       C  0.90564743  0.56988698  0.26196354     0.92600
O2023       O  0.50829908  0.96936028  0.30779581    -0.75400
O2024       O  0.92197672  0.57021241  0.28367508    -0.82900
Mg2025     Mg  0.54748371  0.95842597  0.28022021     1.58000
C2026       C  0.92139417  0.50799990  0.16395803     0.92500
O2027       O  0.58725924  0.94308810  0.25679252    -0.81100
H2028       H  0.52144927  0.50785953  0.16783601    -0.06500
C2029       C  0.93349494  0.99132720  0.25272666     0.87500
O2030       O  0.52273044  0.56318751  0.25884837    -0.75600
O2031       O  0.52126856  0.94862092  0.24491863    -0.88400
O2032       O  0.93911219  0.98830872  0.16639217    -0.81200
C2033       C  0.99389983  0.91676770  0.16809087     0.92600
C2034       C  0.59477170  0.93100162  0.23383292     0.92500
Mg2035     Mg  0.95147087  0.53996714  0.21672196     1.58000
O2036       O  0.91177051  0.55531229  0.24012780    -0.81100
O2037       O  0.98990533  0.52897309  0.18848740    -0.75400
O2038       O  0.51768988  0.92221055  0.17999544    -0.81200
O2039       O  0.57643697  0.96796900  0.31694312    -0.82900
O2040       O  0.98315219  0.57953764  0.31513386    -0.81300
C2041       C  0.50477088  0.50691387  0.18361280     0.86900
O2042       O  0.97853373  0.55058224  0.25152269    -0.88400
O2043       O  0.94936818  0.99802958  0.23297650    -0.88500
O2044       O  0.93508386  0.50380676  0.27681833    -0.75600
Mg2045     Mg  0.53877423  0.95920765  0.20372894     1.58000
O2046       O  0.97144500  0.93097909  0.17294618    -0.82900
H2047       H  0.57997924  0.52641724  0.24734250    -0.06700
O2048       O  0.99776983  0.51463000  0.30058968    -0.88200
H2049       H  0.97616100  0.98972745  0.32816300    -0.06500
H2050       H  0.49649745  0.58302223  0.23080612    -0.06700
C2051       C  0.99335172  0.99127337  0.31299195     0.86900
C2052       C  0.56539520  0.50893604  0.24466974     0.87500
C2053       C  0.49887273  0.56648870  0.24657200     0.87500
H2054       H  0.91856692  0.97416529  0.24989303    -0.06600
O2055       O  0.97687839  0.93644717  0.23889924    -0.75700
Mg2056     Mg  0.96113455  0.54171781  0.29298452     1.58000
H2057       H  0.00391854  0.91592851  0.26557669    -0.06700
C2058       C  0.57648569  0.98812753  0.33466857     0.92500
O2059       O  0.52800602  0.56815923  0.32577997    -0.82900
C2060       C  0.50615601  0.58376722  0.32913668     0.92600
O2061       O  0.57883612  0.93169105  0.21184118    -0.82900
Mg2062     Mg  0.96044223  0.96535071  0.20353053     1.58200
O2063       O  0.56063938  0.51047925  0.33135281    -0.81200
O2064       O  0.92188919  0.52890510  0.18083913    -0.82900
O2065       O  0.50429318  0.76245320  0.05211718    -0.88500
C2066       C  0.93481752  0.75081802  0.50194424     0.87500
Mg2067     Mg  0.53732568  0.79206781  0.04281126     1.58100
O2068       O  0.98633321  0.69626972  0.00090151    -0.88200
O2069       O  0.99782030  0.71821867  0.06413366    -0.75600
C2070       C  0.57227991  0.76638683  0.40849627     0.92600
O2071       O  0.97258759  0.80799935  0.01179985    -0.75400
O2072       O  0.57199921  0.78734990  0.42556762    -0.82900
Mg2073     Mg  0.96141910  0.77890897  0.04927391     1.58000
C2074       C  0.51137981  0.66656559  0.42004176     0.92500
O2075       O  0.94659588  0.75454437  0.08823754    -0.81100
H2076       H  0.50991506  0.66689824  0.02073427    -0.06500
C2077       C  0.99298585  0.75568579  0.43587365     0.87500
O2078       O  0.56644860  0.75722856  0.02521073    -0.75600
O2079       O  0.95123779  0.74492560  0.02150737    -0.88400
O2080       O  0.98931967  0.66948937  0.43553372    -0.80800
C2081       C  0.91688496  0.66912426  0.49138076     0.92600
C2082       C  0.93098464  0.73312348  0.09315712     0.92500
Mg2083     Mg  0.54272484  0.71837074  0.45254579     1.58000
O2084       O  0.55909773  0.74349942  0.41425634    -0.81100
O2085       O  0.53114472  0.68879653  0.48974643    -0.75400
O2086       O  0.92189965  0.68157620  0.01519505    -0.81200
O2087       O  0.97076903  0.81499559  0.07883953    -0.82900
O2088       O  0.58176466  0.81563326  0.48751119    -0.81300
C2089       C  0.50893529  0.68312281  0.00451755     0.86900
O2090       O  0.55314946  0.75205316  0.48071511    -0.88400
O2091       O  0.99973583  0.73475233  0.45016433    -0.88500
O2092       O  0.50573490  0.77914858  0.43882032    -0.75600
Mg2093     Mg  0.95958251  0.70306582  0.03771096     1.58000
O2094       O  0.93150231  0.67372508  0.46915940    -0.82900
H2095       H  0.52824635  0.74330589  0.08164057    -0.06700
O2096       O  0.51753408  0.80012274  0.50190874    -0.88200
H2097       H  0.99442115  0.82983098  0.48196064    -0.06500
H2098       H  0.58621408  0.73059696  0.99774706    -0.06700
C2099       C  0.99513112  0.81356799  0.49815052     0.86900
C2100       C  0.51082130  0.74166090  0.06672502     0.87500
C2101       C  0.56957101  0.74617109  0.00092125     0.87500
H2102       H  0.97549818  0.75411096  0.42102381    -0.06600
O2103       O  0.93764278  0.73990093  0.47757442    -0.75700
Mg2104     Mg  0.54399732  0.79422241  0.46511317     1.58000
H2105       H  0.91825067  0.76641055  0.50540752    -0.06700
C2106       C  0.99169374  0.83189636  0.08013262     0.92500
O2107       O  0.57109904  0.82385067  0.03318577    -0.82900
C2108       C  0.58551464  0.82900127  0.01103916     0.92600
O2109       O  0.93059121  0.71179481  0.07650150    -0.82900
Mg2110     Mg  0.96639714  0.70504541  0.45952968     1.58200
O2111       O  0.51409228  0.82781417  0.06552227    -0.81200
O2112       O  0.53246181  0.68324674  0.42191004    -0.82900
O2113       O  0.71544468  0.78200195  0.22265007    -0.88500
C2114       C  0.80167062  0.79060782  0.23403611     0.87500
Mg2115     Mg  0.68628350  0.78083461  0.25819221     1.58100
O2116       O  0.77956258  0.72212454  0.21421210    -0.88200
O2117       O  0.72854814  0.75688855  0.18589543    -0.75600
C2118       C  0.74034792  0.68447995  0.34619552     0.92600
O2119       O  0.74768259  0.81623488  0.27172733    -0.75400
O2120       O  0.72593348  0.70739492  0.34714908    -0.82900
Mg2121     Mg  0.74539659  0.81650152  0.22276219     1.58000
C2122       C  0.81388968  0.65227066  0.25871561     0.92500
O2123       O  0.74539316  0.82333214  0.17423923    -0.81100
H2124       H  0.76098838  0.69586940  0.18663686    -0.06500
C2125       C  0.79231720  0.73357149  0.29936219     0.87500
O2126       O  0.68472961  0.73202341  0.25640011    -0.75600
O2127       O  0.77979221  0.78592787  0.22022189    -0.88400
O2128       O  0.82095186  0.67313798  0.24296729    -0.81200
C2129       C  0.84713503  0.73860142  0.18354932     0.92600
C2130       C  0.76090064  0.81603268  0.15328964     0.92500
Mg2131     Mg  0.75576898  0.68561827  0.27673616     1.58000
O2132       O  0.75512602  0.67777295  0.32456422    -0.81100
O2133       O  0.75377194  0.68617479  0.22799193    -0.75400
O2134       O  0.82631233  0.75495183  0.17725930    -0.81200
O2135       O  0.70875804  0.84848859  0.22466560    -0.82900
O2136       O  0.67563975  0.74656428  0.32318515    -0.81300
C2137       C  0.76495260  0.70115413  0.20858759     0.86900
O2138       O  0.72187679  0.71648778  0.27988925    -0.88400
O2139       O  0.78605459  0.72004879  0.27783221    -0.88500
O2140       O  0.77332760  0.74481005  0.31493918    -0.75600
Mg2141     Mg  0.77771483  0.75697195  0.18484387     1.58000
O2142       O  0.84664084  0.72289268  0.20553855    -0.82900
H2143       H  0.68721836  0.76478927  0.19601735    -0.06700
O2144       O  0.72246439  0.78013371  0.28646333    -0.88200
H2145       H  0.74158083  0.80674639  0.31334529    -0.06500
H2146       H  0.69327680  0.69025079  0.26275848    -0.06700
C2147       C  0.73715982  0.80122234  0.29154360     0.86900
C2148       C  0.70937919  0.76805623  0.20133384     0.87500
C2149       C  0.69972931  0.71190015  0.26648586     0.87500
H2150       H  0.81452765  0.73650367  0.30468162    -0.06600
O2151       O  0.81656848  0.77055652  0.24443347    -0.75700
Mg2152     Mg  0.72426978  0.74483469  0.31587284     1.58000
H2153       H  0.80795234  0.81228706  0.23787584    -0.06700
C2154       C  0.68741671  0.84989153  0.24125790     0.92500
O2155       O  0.65548071  0.77965021  0.29584205    -0.82900
C2156       C  0.65483874  0.76301386  0.31716236     0.92600
O2157       O  0.77618846  0.79374100  0.15362129    -0.82900
Mg2158     Mg  0.81548501  0.72169302  0.24274109     1.58200
O2159       O  0.68113161  0.82964582  0.25813070    -0.81200
O2160       O  0.79186281  0.65312106  0.27441887    -0.82900
O2161       O  0.79097236  0.97720908  0.02458078    -0.88500
C2162       C  0.70877727  0.98060622  0.05001160     0.87500
Mg2163     Mg  0.81456390  0.51553435  0.01669784     1.58100
O2164       O  0.72024248  0.96096948  0.47859901    -0.88200
O2165       O  0.77919324  0.93829706  0.00271472    -0.75600
C2166       C  0.73654505  0.59538621  0.43129583     0.92600
O2167       O  0.76027656  0.52375496  0.06280988    -0.75400
O2168       O  0.75433348  0.59783004  0.45150564    -0.82900
Mg2169     Mg  0.76871566  0.97564905  0.06441053     1.58000
C2170       C  0.66807290  0.99669871  0.41634744     0.92500
O2171       O  0.77508977  0.92732254  0.07300237    -0.81100
H2172       H  0.73670062  0.93480744  0.44957293    -0.06500
C2173       C  0.69922048  0.54472098  0.48943366     0.87500
O2174       O  0.80772192  0.51120379  0.46827669    -0.75600
O2175       O  0.73035197  0.96813252  0.04153809    -0.88400
O2176       O  0.66755358  0.98081656  0.43822188    -0.81200
C2177       C  0.66159638  0.92443611  0.01028405     0.92600
C2178       C  0.76161033  0.90435030  0.06803463     0.92500
Mg2179     Mg  0.72857396  0.52447109  0.43627789     1.58000
O2180       O  0.72239405  0.57259330  0.42743617    -0.81100
O2181       O  0.73624521  0.97623024  0.43777805    -0.75400
O2182       O  0.68594489  0.92046193  0.02134062    -0.81200
O2183       O  0.80981423  0.98377187  0.08774158    -0.82900
O2184       O  0.81213948  0.58118616  0.48067412    -0.81300
C2185       C  0.73100282  0.95629610  0.45515647     0.86900
O2186       O  0.76710856  0.53238552  0.45926828    -0.88400
O2187       O  0.70587938  0.52334176  0.47592627    -0.88500
O2188       O  0.71774038  0.56284983  0.49666013    -0.75600
Mg2189     Mg  0.73171843  0.93280299  0.01259286     1.58000
O2190       O  0.65650139  0.94548383  0.49399022    -0.82900
H2191       H  0.81953963  0.95364080  0.00372659    -0.06700
O2192       O  0.77595426  0.53963545  0.02206376    -0.88200
H2193       H  0.75889793  0.56525406  0.05124786    -0.06500
H2194       H  0.79150374  0.51601449  0.42861445    -0.06700
C2195       C  0.76499613  0.54391873  0.04549983     0.86900
C2196       C  0.79766329  0.95626196  0.01041564     0.87500
C2197       C  0.78888034  0.52010101  0.45102081     0.87500
H2198       H  0.67730068  0.54769953  0.49582776    -0.06600
O2199       O  0.68980664  0.98966711  0.03299038    -0.75700
Mg2200     Mg  0.76554450  0.56824320  0.48778613     1.58000
H2201       H  0.70649209  0.98479483  0.07243200    -0.06700
C2202       C  0.82767079  0.50333619  0.08461456     0.92500
O2203       O  0.83969814  0.55528487  0.00884880    -0.82900
C2204       C  0.83582578  0.57691533  0.49318093     0.92600
O2205       O  0.74370345  0.90279778  0.04787099    -0.82900
Mg2206     Mg  0.68176102  0.98513810  0.48466015     1.58200
O2207       O  0.82737868  0.52007713  0.06341975    -0.81200
O2208       O  0.68743879  0.51613843  0.41268691    -0.82900
C2209       C  0.76306636  0.83574038  0.12905456    -0.00300
C2210       C  0.78431588  0.85651458  0.12989239    -0.12200
C2211       C  0.78548586  0.87812571  0.10944655     0.01900
C2212       C  0.76482457  0.87935754  0.08749381    -0.00400
C2213       C  0.74451777  0.85731762  0.08595103    -0.12100
C2214       C  0.74346677  0.83575182  0.10651362     0.01800
H2215       H  0.79964424  0.85630402  0.14715494     0.14800
H2216       H  0.72857305  0.85743642  0.06928939     0.14800
C2217       C  0.72178104  0.81421242  0.10444038     0.36500
C2218       C  0.80796519  0.89875389  0.11204403     0.36400
N2219       N  0.70448167  0.79686175  0.10272159    -0.43900
N2220       N  0.82613059  0.91511181  0.11437386    -0.43900
C2221       C  0.73427807  0.61872480  0.41004323    -0.00300
C2222       C  0.73723151  0.64721410  0.41852892    -0.12200
C2223       C  0.73863072  0.66932033  0.39837350     0.01900
C2224       C  0.73796255  0.66294284  0.36914405    -0.00400
C2225       C  0.73475238  0.63457182  0.36080665    -0.12100
C2226       C  0.73273936  0.61266155  0.38070198     0.01800
H2227       H  0.73883043  0.65217410  0.44092498     0.14800
H2228       H  0.73392587  0.62939045  0.33839654     0.14800
C2229       C  0.73093538  0.58398709  0.37010239     0.36500
C2230       C  0.74210187  0.69806991  0.40812646     0.36400
N2231       N  0.72954013  0.56105935  0.36152475    -0.43900
N2232       N  0.74489762  0.72113217  0.41595549    -0.43900
C2233       C  0.89548106  0.64627061  0.49103826    -0.00300
C2234       C  0.89667011  0.62624668  0.51301161    -0.12200
C2235       C  0.87870126  0.60271910  0.51331260     0.01900
C2236       C  0.85813614  0.59921315  0.49155786    -0.00400
C2237       C  0.85714139  0.61927964  0.46935461    -0.12100
C2238       C  0.87587098  0.64242633  0.46871994     0.01800
H2239       H  0.91228211  0.62866743  0.52984071     0.14800
H2240       H  0.84188327  0.61668715  0.95254731     0.14800
C2241       C  0.87452912  0.66181295  0.94531767     0.36500
C2242       C  0.88189768  0.58298506  0.53659569     0.36400
N2243       N  0.87327950  0.67749217  0.92642265    -0.43900
N2244       N  0.88491639  0.56716674  0.55517237    -0.43900
C2245       C  0.60491599  0.85344649  0.01138437    -0.00300
C2246       C  0.62293941  0.85789424  0.03469401    -0.12200
C2247       C  0.64053945  0.88183193  0.03585603     0.01900
C2248       C  0.63994069  0.90190896  0.01341566    -0.00400
C2249       C  0.62039388  0.89813524  0.49089787    -0.12100
C2250       C  0.60297013  0.87428989  0.48975546     0.01800
H2251       H  0.62342214  0.84253916  0.05186921     0.14800
H2252       H  0.61928371  0.91349718  0.47375609     0.14800
C2253       C  0.58243083  0.87243484  0.46695932     0.36500
C2254       C  0.65858949  0.88539553  0.06044909     0.36400
N2255       N  0.56582707  0.87096112  0.44885403    -0.43900
N2256       N  0.67297271  0.88826805  0.08019666    -0.43900
C2257       C  0.63018000  0.76381117  0.33693232    -0.00300
C2258       C  0.61992571  0.79015125  0.34657125    -0.12200
C2259       C  0.60040616  0.79186957  0.36920420     0.01900
C2260       C  0.59023691  0.76677638  0.38224524    -0.00400
C2261       C  0.59918304  0.74049213  0.37109535    -0.12100
C2262       C  0.61906662  0.73883086  0.34904012     0.01800
H2263       H  0.62833655  0.80951823  0.33741150     0.14800
H2264       H  0.59163264  0.72088016  0.38046926     0.14800
C2265       C  0.62798345  0.71110702  0.33948405     0.36500
C2266       C  0.59162169  0.81961726  0.37871437     0.36400
N2267       N  0.63510768  0.68886495  0.33191284    -0.43900
N2268       N  0.58470732  0.84194537  0.38622755    -0.43900
C2269       C  0.87165764  0.73721847  0.16345245    -0.00300
C2270       C  0.87795529  0.76144036  0.14735776    -0.12200
C2271       C  0.89763789  0.76053838  0.12511057     0.01900
C2272       C  0.91154014  0.73473329  0.11807631    -0.00400
C2273       C  0.90588774  0.71057984  0.13456154    -0.12100
C2274       C  0.88650594  0.71169716  0.15734280     0.01800
H2275       H  0.86682691  0.78116046  0.15170056     0.14800
H2276       H  0.91652641  0.69076581  0.12956524     0.14800
C2277       C  0.88150606  0.68600133  0.17320573     0.36500
C2278       C  0.90165778  0.78622885  0.10880090     0.36400
N2279       N  0.87777308  0.66535019  0.18594946    -0.43900
N2280       N  0.90479822  0.80683287  0.09579284    -0.43900
C2281       C  0.83334621  0.62730419  0.25957640    -0.00300
C2282       C  0.84738877  0.61962933  0.23454661    -0.12200
C2283       C  0.87010905  0.60035483  0.23478116     0.01900
C2284       C  0.87957192  0.58813002  0.26074222    -0.00400
C2285       C  0.86463793  0.59480763  0.28570567    -0.12100
C2286       C  0.84148734  0.61389662  0.28528047     0.01800
H2287       H  0.84116188  0.62957515  0.21469774     0.14800
H2288       H  0.87134826  0.58546497  0.30568278     0.14800
C2289       C  0.82749770  0.62041188  0.31175566     0.36500
C2290       C  0.88441881  0.59535981  0.20811037     0.36400
N2291       N  0.81617039  0.62549219  0.33295628    -0.43900
N2292       N  0.89575800  0.59163544  0.18664100    -0.43900
C2293       C  0.66773608  0.87462934  0.23956752    -0.00300
C2294       C  0.65862357  0.88432503  0.21276222    -0.12200
C2295       C  0.63572889  0.90354300  0.21002457     0.01900
C2296       C  0.62170042  0.91380840  0.23454374    -0.00400
C2297       C  0.63250932  0.90564676  0.26132476    -0.12100
C2298       C  0.65496435  0.88619894  0.26398853     0.01800
H2299       H  0.66838330  0.87567338  0.19379701     0.14800
H2300       H  0.62258034  0.91345868  0.28055966     0.14800
C2301       C  0.66427523  0.87823618  0.29213598     0.36500
C2302       C  0.62698794  0.91192302  0.18184175     0.36400
N2303       N  0.67169658  0.87194083  0.31472131    -0.43900
N2304       N  0.62010515  0.91858940  0.15918970    -0.43900
C2305       C  0.59832619  0.98872359  0.35752920    -0.00300
C2306       C  0.60678359  0.51629908  0.36800438    -0.12200
C2307       C  0.62963432  0.51910577  0.38674302     0.01900
C2308       C  0.64469575  0.99415601  0.39556190    -0.00400
C2309       C  0.63635482  0.96730822  0.38587177    -0.12100
C2310       C  0.61360921  0.96438572  0.36671767     0.01800
H2311       H  0.59554450  0.53529454  0.36126746     0.14800
H2312       H  0.64789199  0.94862975  0.39299942     0.14800
C2313       C  0.60646215  0.93621673  0.35713000     0.36500
C2314       C  0.63614219  0.54703434  0.39746309     0.36400
N2315       N  0.60086009  0.91360821  0.34946751    -0.43900
N2316       N  0.64126483  0.56940467  0.40607866    -0.43900
C2317       C  0.85126091  0.50545701  0.10505207    -0.00300
C2318       C  0.86613156  0.48057886  0.11171227    -0.12200
C2319       C  0.88961186  0.48092830  0.12987078     0.01900
C2320       C  0.89899620  0.50693961  0.14166137    -0.00400
C2321       C  0.88423502  0.53200993  0.13445212    -0.12100
C2322       C  0.86047391  0.53143975  0.11642940     0.01800
H2323       H  0.85945584  0.46066428  0.10242980     0.14800
H2324       H  0.89083490  0.55207659  0.14340681     0.14800
C2325       C  0.84508212  0.55747864  0.11111196     0.36500
C2326       C  0.90244881  0.45388890  0.13676435     0.36400
N2327       N  0.83272847  0.57835746  0.10693373    -0.43900
N2328       N  0.91234464  0.43201505  0.14212489    -0.43900
C2329       C  0.99282836  0.89478224  0.14606187    -0.00300
C2330       C  0.51353711  0.89549593  0.12466855    -0.12200
C2331       C  0.51258087  0.87660850  0.10190757     0.01900
C2332       C  0.99101207  0.85558492  0.10086900    -0.00400
C2333       C  0.96982494  0.85554302  0.12204493    -0.12100
C2334       C  0.97039320  0.87509160  0.14431098     0.01800
H2335       H  0.53013006  0.91146761  0.12533885     0.14800
H2336       H  0.95307571  0.83976111  0.12170587     0.14800
C2337       C  0.94828590  0.87388650  0.16558639     0.36500
C2338       C  0.53358474  0.88003143  0.07975429     0.36400
N2339       N  0.93053549  0.87299832  0.18259915    -0.43900
N2340       N  0.55033742  0.88304409  0.06199326    -0.43900
C2341       C  0.50725319  0.60637574  0.35119599    -0.00300
C2342       C  0.53379055  0.61327796  0.36342042    -0.12200
C2343       C  0.53583703  0.63232282  0.38611987     0.01900
C2344       C  0.51090773  0.64476187  0.39740534    -0.00400
C2345       C  0.48447297  0.63804938  0.38516294    -0.12100
C2346       C  0.48238480  0.61936465  0.36227616     0.01800
H2347       H  0.55315202  0.60355003  0.35543605     0.14800
H2348       H  0.96512081  0.64811818  0.39299027     0.14800
C2349       C  0.95417159  0.61404819  0.35097674     0.36500
C2350       C  0.56370051  0.63801574  0.39782606     0.36400
N2351       N  0.93156293  0.60985882  0.34210713    -0.43900
N2352       N  0.58605978  0.64254255  0.40714011    -0.43900
O2353       O  0.55011635  0.50163866  0.76490751    -0.88500
C2354       C  0.00120111  0.93290150  0.75033285     0.87500
Mg2355     Mg  0.53910082  0.53401687  0.79477190     1.58100
O2356       O  0.50157599  0.98530021  0.69698284    -0.88200
O2357       O  0.56398511  0.99711257  0.72116755    -0.75600
C2358       C  0.90578630  0.56999572  0.76215661     0.92600
O2359       O  0.50834752  0.96976084  0.80786627    -0.75400
O2360       O  0.92209817  0.57033766  0.78388731    -0.82900
Mg2361     Mg  0.54755552  0.95870927  0.78038754     1.58000
C2362       C  0.92149191  0.50827462  0.66409289     0.92500
O2363       O  0.58736941  0.94322860  0.75707886    -0.81100
H2364       H  0.52152555  0.50809981  0.66804412    -0.06500
C2365       C  0.93353825  0.99151089  0.75272426     0.87500
O2366       O  0.52276388  0.56322386  0.75920969    -0.75600
O2367       O  0.52137061  0.94880793  0.74507906    -0.88400
O2368       O  0.93888586  0.98809660  0.66638254    -0.81200
C2369       C  0.99402915  0.91656907  0.66838567     0.92600
C2370       C  0.59489210  0.93111244  0.73413570     0.92500
Mg2371     Mg  0.95159366  0.54013495  0.71691717     1.58000
O2372       O  0.91192220  0.55539915  0.74034514    -0.81100
O2373       O  0.99002643  0.52915172  0.68867845    -0.75400
O2374       O  0.51782651  0.92211243  0.68027883    -0.81200
O2375       O  0.57640183  0.96837012  0.81717696    -0.82900
O2376       O  0.98331352  0.57944025  0.81558000    -0.81300
C2377       C  0.50482590  0.50713629  0.68379734     0.86900
O2378       O  0.97866339  0.55065300  0.75178195    -0.88400
O2379       O  0.94935453  0.99812207  0.73289730    -0.88500
O2380       O  0.93510307  0.50391835  0.77693044    -0.75600
Mg2381     Mg  0.53886093  0.95924089  0.70385471     1.58000
O2382       O  0.97154121  0.93079680  0.67309090    -0.82900
H2383       H  0.57998310  0.52637677  0.74762148    -0.06700
O2384       O  0.99779698  0.51455048  0.80080173    -0.88200
H2385       H  0.97620742  0.99042026  0.82812850    -0.06500
H2386       H  0.49658316  0.58317100  0.73119706    -0.06700
C2387       C  0.99340393  0.99183870  0.81295133     0.86900
C2388       C  0.56537493  0.50892533  0.74488709     0.87500
C2389       C  0.49892534  0.56658374  0.74691129     0.87500
H2390       H  0.91861637  0.97432300  0.75001922    -0.06600
O2391       O  0.97694617  0.93657786  0.73905588    -0.75700
Mg2392     Mg  0.96121300  0.54173770  0.79322245     1.58000
H2393       H  0.00395989  0.91622494  0.76588585    -0.06700
C2394       C  0.57640727  0.98861028  0.83481412     0.92500
O2395       O  0.52803357  0.56798137  0.82615930    -0.82900
C2396       C  0.50621191  0.58361633  0.82957697     0.92600
O2397       O  0.57896758  0.93179375  0.71213117    -0.82900
Mg2398     Mg  0.96043646  0.96530493  0.70356927     1.58200
O2399       O  0.56062736  0.51024888  0.83156752    -0.81200
O2400       O  0.92195075  0.52916938  0.68098929    -0.82900
O2401       O  0.50446402  0.76220755  0.55196954    -0.88500
C2402       C  0.93482672  0.75075323  0.00186881     0.87500
Mg2403     Mg  0.53749340  0.79184243  0.54265000     1.58100
O2404       O  0.98629464  0.69630756  0.50044427    -0.88200
O2405       O  0.99805063  0.71792828  0.56375371    -0.75600
C2406       C  0.57265740  0.76608822  0.90886800     0.92600
O2407       O  0.97265342  0.80801921  0.51207027    -0.75400
O2408       O  0.57231433  0.78708451  0.92589826    -0.82900
Mg2409     Mg  0.96167780  0.77870234  0.54943975     1.58000
C2410       C  0.51163835  0.66625464  0.92062995     0.92500
O2411       O  0.94705690  0.75407966  0.58836710    -0.81100
H2412       H  0.50991526  0.66682808  0.52014754    -0.06500
C2413       C  0.99333842  0.75530027  0.93607987     0.87500
O2414       O  0.56650962  0.75707170  0.52475883    -0.75600
O2415       O  0.95130980  0.74488391  0.52148445    -0.88400
O2416       O  0.98964052  0.66907648  0.93622892    -0.80800
C2417       C  0.91688278  0.66911089  0.99170679     0.92600
C2418       C  0.93125508  0.73274848  0.59309541     0.92500
Mg2419     Mg  0.54297959  0.71816219  0.95303374     1.58000
O2420       O  0.55954687  0.74316978  0.91469376    -0.81100
O2421       O  0.53124846  0.68873992  0.99031371    -0.75400
O2422       O  0.92192993  0.68148362  0.51492111    -0.81200
O2423       O  0.97126376  0.81461783  0.57919467    -0.82900
O2424       O  0.58184437  0.81566501  0.98779432    -0.81300
C2425       C  0.50887973  0.68311663  0.50399874     0.86900
O2426       O  0.55331904  0.75197569  0.98112131    -0.88400
O2427       O  0.00001919  0.73443150  0.95049634    -0.88500
O2428       O  0.50604694  0.77886948  0.93892507    -0.75600
Mg2429     Mg  0.95968419  0.70292361  0.53740712     1.58000
O2430       O  0.93161148  0.67353374  0.96951801    -0.82900
H2431       H  0.52848210  0.74288030  0.58132455    -0.06700
O2432       O  0.51755095  0.80013074  0.00195060    -0.88200
H2433       H  0.99454828  0.82965405  0.98171907    -0.06500
H2434       H  0.58612813  0.73058426  0.49705448    -0.06700
C2435       C  0.99515804  0.81348658  0.99800837     0.86900
C2436       C  0.51100395  0.74133644  0.56645918     0.87500
C2437       C  0.56950662  0.74614541  0.50039657     0.87500
H2438       H  0.97592664  0.75365612  0.92115042    -0.06600
O2439       O  0.93777458  0.73973144  0.97756305    -0.75700
Mg2440     Mg  0.54418561  0.79408712  0.96531600     1.58000
H2441       H  0.91823643  0.76635409  0.00518417    -0.06700
C2442       C  0.99219353  0.83152325  0.58045259     0.92500
O2443       O  0.57123905  0.82364282  0.53298627    -0.82900
C2444       C  0.58553940  0.82888191  0.51078562     0.92600
O2445       O  0.93076793  0.71152315  0.57630866    -0.82900
Mg2446     Mg  0.96661212  0.70477823  0.95987057     1.58200
O2447       O  0.51441898  0.82750970  0.56566953    -0.81200
O2448       O  0.53274167  0.68291991  0.92248014    -0.82900
O2449       O  0.71558040  0.78217777  0.72278738    -0.88500
C2450       C  0.80188825  0.79055858  0.73410648     0.87500
Mg2451     Mg  0.68640512  0.78092173  0.75832979     1.58100
O2452       O  0.77959107  0.72216072  0.71415691    -0.88200
O2453       O  0.72862372  0.75712428  0.68597132    -0.75600
C2454       C  0.74038762  0.68431133  0.84613888     0.92600
O2455       O  0.74788520  0.81616941  0.77197312    -0.75400
O2456       O  0.72600619  0.70724230  0.84712224    -0.82900
Mg2457     Mg  0.74561716  0.81661092  0.72301153     1.58000
C2458       C  0.81387590  0.65219340  0.75858423     0.92500
O2459       O  0.74570393  0.82362986  0.67451987    -0.81100
H2460       H  0.76094563  0.69597954  0.68655823    -0.06500
C2461       C  0.79239717  0.73345445  0.79932203     0.87500
O2462       O  0.68482532  0.73211519  0.75638071    -0.75600
O2463       O  0.77997210  0.78596467  0.72032187    -0.88400
O2464       O  0.82089714  0.67301682  0.74275900    -0.81200
C2465       C  0.84718380  0.73846859  0.68337231     0.92600
C2466       C  0.76106893  0.81627969  0.65348250     0.92500
Mg2467     Mg  0.75579215  0.68556005  0.77665652     1.58000
O2468       O  0.75513200  0.67759899  0.82448541    -0.81100
O2469       O  0.75377776  0.68621336  0.72790612    -0.75400
O2470       O  0.82639594  0.75489117  0.67713308    -0.81200
O2471       O  0.70898684  0.84865076  0.72503030    -0.82900
O2472       O  0.67570085  0.74640674  0.82322220    -0.81300
C2473       C  0.76494461  0.70122017  0.70851326     0.86900
O2474       O  0.72192657  0.71645057  0.77986346    -0.88400
O2475       O  0.78612633  0.71995500  0.77777802    -0.88500
O2476       O  0.77341353  0.74466656  0.81492948    -0.75600
Mg2477     Mg  0.77778479  0.75707735  0.68485823     1.58000
O2478       O  0.84667300  0.72276566  0.70536940    -0.82900
H2479       H  0.68731463  0.76510488  0.69610802    -0.06700
O2480       O  0.72257155  0.78008928  0.78659766    -0.88200
H2481       H  0.74173928  0.80658205  0.81356102    -0.06500
H2482       H  0.69331661  0.69031101  0.76260021    -0.06700
C2483       C  0.73731292  0.80113020  0.79174177     0.86900
C2484       C  0.70948317  0.76830462  0.70143369     0.87500
C2485       C  0.69978994  0.71193888  0.76641433     0.87500
H2486       H  0.81460999  0.73638335  0.80463341    -0.06600
O2487       O  0.81675743  0.77044581  0.74442575    -0.75700
Mg2488     Mg  0.72434685  0.74471551  0.81590725     1.58000
H2489       H  0.80823285  0.81221277  0.73798400    -0.06700
C2490       C  0.68761077  0.85003019  0.74158868     0.92500
O2491       O  0.65559806  0.77962516  0.79599281    -0.82900
C2492       C  0.65492811  0.76291170  0.81725493     0.92600
O2493       O  0.77625073  0.79391247  0.65370403    -0.82900
Mg2494     Mg  0.81554536  0.72158826  0.74263826     1.58200
O2495       O  0.68128883  0.82975329  0.75841318    -0.81200
O2496       O  0.79186992  0.65307132  0.77431172    -0.82900
O2497       O  0.79097846  0.97727610  0.52455918    -0.88500
C2498       C  0.70864017  0.98052494  0.54960157     0.87500
Mg2499     Mg  0.81482052  0.51535528  0.51632089     1.58100
O2500       O  0.72001020  0.96121069  0.97890232    -0.88200
O2501       O  0.77936511  0.93828706  0.50272787    -0.75600
C2502       C  0.73645228  0.59523763  0.93126753     0.92600
O2503       O  0.76071189  0.52389597  0.56268850    -0.75400
O2504       O  0.75412773  0.59775703  0.95156749    -0.82900
Mg2505     Mg  0.76851145  0.97566889  0.56426974     1.58000
C2506       C  0.66758667  0.99716384  0.91694059     0.92500
O2507       O  0.77499032  0.92740447  0.57289859    -0.81100
H2508       H  0.73623113  0.93505802  0.94973673    -0.06500
C2509       C  0.69903272  0.54444226  0.98921694     0.87500
O2510       O  0.80779518  0.51138950  0.96860903    -0.75600
O2511       O  0.73026856  0.96806769  0.54124061    -0.88400
O2512       O  0.66712572  0.98125129  0.93879653    -0.81200
C2513       C  0.66170703  0.92422945  0.50985000     0.92600
C2514       C  0.76158071  0.90438763  0.56798694     0.92500
Mg2515     Mg  0.72873881  0.52429218  0.93624447     1.58000
O2516       O  0.72240152  0.57239072  0.92736181    -0.81100
O2517       O  0.73577748  0.97649881  0.93800498    -0.75400
O2518       O  0.68604951  0.92026460  0.52092392    -0.81200
O2519       O  0.80947998  0.98378077  0.58776241    -0.82900
O2520       O  0.81183662  0.58138119  0.98107165    -0.81300
C2521       C  0.73061337  0.95654917  0.95538791     0.86900
O2522       O  0.76713015  0.53238294  0.95940751    -0.88400
O2523       O  0.70588296  0.52307514  0.97578748    -0.88500
O2524       O  0.71741927  0.56266727  0.99653043    -0.75600
Mg2525     Mg  0.73184633  0.93266517  0.51239481     1.58000
O2526       O  0.65636072  0.94573009  0.99448744    -0.82900
H2527       H  0.81966611  0.95374872  0.50381919    -0.06700
O2528       O  0.77634032  0.53963376  0.52187501    -0.88200
H2529       H  0.75954066  0.56538554  0.55108527    -0.06500
H2530       H  0.79177346  0.51617218  0.92886415    -0.06700
C2531       C  0.76549915  0.54400956  0.54534521     0.86900
C2532       C  0.79776334  0.95632530  0.51043970     0.87500
C2533       C  0.78900612  0.52021558  0.95126113     0.87500
H2534       H  0.67705813  0.54732691  0.99546644    -0.06600
O2535       O  0.68973332  0.98953231  0.53248431    -0.75700
Mg2536     Mg  0.76524909  0.56823262  0.98792335     1.58000
H2537       H  0.70625424  0.98475196  0.57200408    -0.06700
C2538       C  0.82809742  0.50332289  0.58433793     0.92500
O2539       O  0.84006616  0.55499360  0.50828686    -0.82900
C2540       C  0.83546518  0.57718695  0.99371034     0.92600
O2541       O  0.74371251  0.90273039  0.54779803    -0.82900
Mg2542     Mg  0.68158956  0.98541204  0.98518513     1.58200
O2543       O  0.82799504  0.51982758  0.56295438    -0.81200
O2544       O  0.68772580  0.51579575  0.91250599    -0.82900
C2545       C  0.76317396  0.83598859  0.62924279    -0.00300
C2546       C  0.78426346  0.85691979  0.63013330    -0.12200
C2547       C  0.78539281  0.87847223  0.60962417     0.01900
C2548       C  0.76484994  0.87947925  0.58754511    -0.00400
C2549       C  0.74469954  0.85730191  0.58597472    -0.12100
C2550       C  0.74368556  0.83580051  0.60660790     0.01800
H2551       H  0.79950127  0.85686798  0.64747542     0.14800
H2552       H  0.72884244  0.85726095  0.56923141     0.14800
C2553       C  0.72211300  0.81414884  0.60453886     0.36500
C2554       C  0.80768789  0.89929219  0.61230813     0.36400
N2555       N  0.70489564  0.79671574  0.60284069    -0.43900
N2556       N  0.82568976  0.91581978  0.61470753    -0.43900
C2557       C  0.73419328  0.61857523  0.91000109    -0.00300
C2558       C  0.73735682  0.64704839  0.91846957    -0.12200
C2559       C  0.73881577  0.66914472  0.89831144     0.01900
C2560       C  0.73798260  0.66277625  0.86908552    -0.00400
C2561       C  0.73455020  0.63443053  0.86075803    -0.12100
C2562       C  0.73247413  0.61252862  0.88066136     0.01800
H2563       H  0.73908659  0.65200335  0.94085731     0.14800
H2564       H  0.73358856  0.62926535  0.83834946     0.14800
C2565       C  0.73039307  0.58387645  0.87005586     0.36500
C2566       C  0.74252922  0.69786679  0.90805604     0.36400
N2567       N  0.72876745  0.56096767  0.86146916    -0.43900
N2568       N  0.74552388  0.72090327  0.91588659    -0.43900
C2569       C  0.89533377  0.64637613  0.99142377    -0.00300
C2570       C  0.89600963  0.62676782  0.01379077    -0.12200
C2571       C  0.87790470  0.60335026  0.01421808     0.01900
C2572       C  0.85774552  0.59950901  0.99215619    -0.00400
C2573       C  0.85718891  0.61919559  0.96960794    -0.12100
C2574       C  0.87604380  0.64224457  0.96887368     0.01800
H2575       H  0.91132885  0.62941564  0.03084900     0.14800
H2576       H  0.84155757  0.61702135  0.45250873     0.14800
C2577       C  0.87389486  0.66239186  0.44553209     0.36500
C2578       C  0.88051114  0.58409056  0.03795991     0.36400
N2579       N  0.87227455  0.67838667  0.42693063    -0.43900
N2580       N  0.88306262  0.56865647  0.05692101    -0.43900
C2581       C  0.60492209  0.85333350  0.51111030    -0.00300
C2582       C  0.62308938  0.85769041  0.53432062    -0.12200
C2583       C  0.64071285  0.88160826  0.53544956     0.01900
C2584       C  0.64001531  0.90174305  0.51305953    -0.00400
C2585       C  0.62048619  0.89819679  0.99112853    -0.12100
C2586       C  0.60310223  0.87432478  0.98994188     0.01800
H2587       H  0.62366659  0.84227850  0.55144264     0.14800
H2588       H  0.61947846  0.91350255  0.97393024     0.14800
C2589       C  0.58272862  0.87237569  0.96700985     0.36500
C2590       C  0.65888731  0.88508429  0.55996384     0.36400
N2591       N  0.56625412  0.87083423  0.94879462    -0.43900
N2592       N  0.67336307  0.88788274  0.57965503    -0.43900
C2593       C  0.63029120  0.76370413  0.83705088    -0.00300
C2594       C  0.62032974  0.79002432  0.84701433    -0.12200
C2595       C  0.60089690  0.79168133  0.86972072     0.01900
C2596       C  0.59053490  0.76654779  0.88254680    -0.00400
C2597       C  0.59917201  0.74030317  0.87105899    -0.12100
C2598       C  0.61894968  0.73870129  0.84889257     0.01800
H2599       H  0.62890970  0.80940694  0.83804626     0.14800
H2600       H  0.59144274  0.72066316  0.88022254     0.14800
C2601       C  0.62748906  0.71101812  0.83889783     0.36500
C2602       C  0.59242121  0.81941860  0.87952683     0.36400
N2603       N  0.63429212  0.68881029  0.83094868    -0.43900
N2604       N  0.58575947  0.84174295  0.88726804    -0.43900
C2605       C  0.87168931  0.73700561  0.66322411    -0.00300
C2606       C  0.87791753  0.76113933  0.64695934    -0.12200
C2607       C  0.89765093  0.76016466  0.62475180     0.01900
C2608       C  0.91168585  0.73438131  0.61792319    -0.00400
C2609       C  0.90607543  0.71030563  0.63453629    -0.12100
C2610       C  0.88663979  0.71149334  0.65727997     0.01800
H2611       H  0.86671753  0.78085153  0.65115099     0.14800
H2612       H  0.91680773  0.69050483  0.62968523     0.14800
C2613       C  0.88171946  0.68587338  0.67329171     0.36500
C2614       C  0.90161667  0.78574837  0.60826124     0.36400
N2615       N  0.87805464  0.66528015  0.68614997    -0.43900
N2616       N  0.90472435  0.80625871  0.59509740    -0.43900
C2617       C  0.83337041  0.62726131  0.75952884    -0.00300
C2618       C  0.84744789  0.61953864  0.73453564    -0.12200
C2619       C  0.87020876  0.60031466  0.73485077     0.01900
C2620       C  0.87969840  0.58821547  0.76086633    -0.00400
C2621       C  0.86473109  0.59493881  0.78579437    -0.12100
C2622       C  0.84152251  0.61395422  0.78528272     0.01800
H2623       H  0.84120829  0.62940064  0.71464825     0.14800
H2624       H  0.87144529  0.58567445  0.80580645     0.14800
C2625       C  0.82746607  0.62048525  0.81171827     0.36500
C2626       C  0.88449430  0.59521191  0.70818578     0.36400
N2627       N  0.81607860  0.62557271  0.83288506    -0.43900
N2628       N  0.89579580  0.59139114  0.68671334    -0.43900
C2629       C  0.66791625  0.87476765  0.73989087    -0.00300
C2630       C  0.65873683  0.88439080  0.71308327    -0.12200
C2631       C  0.63582053  0.90358576  0.71034236     0.01900
C2632       C  0.62183140  0.91391487  0.73485947    -0.00400
C2633       C  0.63269956  0.90582119  0.76164030    -0.12100
C2634       C  0.65517766  0.88638719  0.76430731     0.01800
H2635       H  0.66846022  0.87569396  0.69412031     0.14800
H2636       H  0.62280359  0.91367945  0.78087285     0.14800
C2637       C  0.66455793  0.87849496  0.79245115     0.36500
C2638       C  0.62700513  0.91186341  0.68215302     0.36400
N2639       N  0.67204145  0.87225775  0.81503232    -0.43900
N2640       N  0.62005292  0.91844629  0.65949784    -0.43900
C2641       C  0.59807122  0.98921456  0.85784258    -0.00300
C2642       C  0.60686772  0.51597022  0.86811445    -0.12200
C2643       C  0.62980037  0.51874557  0.88675779     0.01900
C2644       C  0.64419978  0.99462607  0.89616496    -0.00400
C2645       C  0.63585544  0.96777660  0.88648849    -0.12100
C2646       C  0.61323092  0.96486299  0.86719507     0.01800
H2647       H  0.59550415  0.53496201  0.86157860     0.14800
H2648       H  0.64732501  0.94909037  0.89370407     0.14800
C2649       C  0.60610452  0.93669028  0.85760551     0.36500
C2650       C  0.63622558  0.54661954  0.89766868     0.36400
N2651       N  0.60052076  0.91407953  0.84993692    -0.43900
N2652       N  0.64128879  0.56893958  0.90644750    -0.43900
C2653       C  0.85159812  0.50556010  0.60489346    -0.00300
C2654       C  0.86596961  0.48060457  0.61230235    -0.12200
C2655       C  0.88929122  0.48099431  0.63065211     0.01900
C2656       C  0.89909028  0.50712201  0.64182083    -0.00400
C2657       C  0.88481507  0.53225915  0.63393471    -0.12100
C2658       C  0.86118032  0.53165713  0.61573026     0.01800
H2659       H  0.85902513  0.46058566  0.60346712     0.14800
H2660       H  0.89173145  0.55241181  0.64245678     0.14800
C2661       C  0.84630691  0.55782565  0.60964394     0.36500
C2662       C  0.90147479  0.45390655  0.63847803     0.36400
N2663       N  0.83436078  0.57880655  0.60484475    -0.43900
N2664       N  0.91083819  0.43200514  0.64461875    -0.43900
C2665       C  0.99310439  0.89447379  0.64643337    -0.00300
C2666       C  0.51408545  0.89497846  0.62521865    -0.12200
C2667       C  0.51325737  0.87602419  0.60250276     0.01900
C2668       C  0.99159965  0.85515199  0.60129206    -0.00400
C2669       C  0.97009932  0.85538014  0.62215708    -0.12100
C2670       C  0.97052446  0.87497382  0.64439341     0.01800
H2671       H  0.53079215  0.91082607  0.62602999     0.14800
H2672       H  0.95316423  0.83980249  0.62157370     0.14800
C2673       C  0.94809613  0.87400821  0.66534346     0.36500
C2674       C  0.53460666  0.87920141  0.58064229     0.36400
N2675       N  0.93009102  0.87330609  0.68209749    -0.43900
N2676       N  0.55165381  0.88203542  0.56313149    -0.43900
C2677       C  0.50737479  0.60615898  0.85171384    -0.00300
C2678       C  0.53390293  0.61279639  0.86412429    -0.12200
C2679       C  0.53598667  0.63179581  0.88686263     0.01900
C2680       C  0.51111002  0.64445812  0.89799446    -0.00400
C2681       C  0.48468759  0.63800096  0.88558655    -0.12100
C2682       C  0.48256155  0.61936073  0.86266607     0.01800
H2683       H  0.55322554  0.60289797  0.85625788     0.14800
H2684       H  0.96544104  0.64790682  0.89358424     0.14800
C2685       C  0.95442561  0.61393806  0.85151303     0.36500
C2686       C  0.56381459  0.63720823  0.89878588     0.36400
N2687       N  0.93181416  0.60986116  0.84259726    -0.43900
N2688       N  0.58613941  0.64151151  0.90828838    -0.43900
loop_ 
_geom_bond_atom_site_label_1 
_geom_bond_atom_site_label_2 
_geom_bond_distance 
_geom_bond_site_symmetry_2 
_ccdc_geom_bond_type 
O1           Mg3   2.142       .  S
O1         Mg681   2.148   1_545  S
O1           C36   1.234       .  S
C2         O1359   1.234       .  S
C2           O39   1.267       .  A
C2           H41   1.081       .  S
Mg3        O1376   2.164   1_455  S
Mg3          O47   2.294       .  S
Mg3          O43   2.244       .  S
Mg3          O14   2.296       .  S
O4          Mg29   2.156       .  S
O4        Mg1390   2.171   1_455  S
O4          C697   1.236       .  S
O5          C708   1.268       .  A
O5          Mg29   2.295       .  S
C6            O8   1.278       .  A
C6           O20   1.271       .  A
C6          C268   1.495       .  S
O7         C1379   1.272   1_455  A
O7           Mg9   2.308       .  S
O8          Mg40   2.317       .  S
Mg9          O15   2.121       .  S
Mg9         O673   2.149       .  S
Mg9          O23   2.244       .  S
Mg9          O11   2.283       .  S
C10          O48   1.269       .  A
C10         O688   1.271   1_545  A
C10         C304   1.485       .  S
O11          C18   1.273       .  A
H12          C25   1.081       .  S
C13          O27   1.234       .  S
C13         O700   1.268       .  A
C13          H38   1.080       .  S
O14          C37   1.269   1_455  A
O15         Mg29   2.165       .  S
O15        C1346   1.234       .  S
O16         C682   1.271       .  A
O16         Mg46   2.284       .  S
C17          O30   1.269       .  A
C17        O1366   1.276       .  A
C17         C313   1.471       .  S
C18          O45   1.278       .  A
C18         C280   1.498       .  S
Mg19         O26   2.136       .  S
Mg19        O699   2.144   1_545  S
Mg19         O20   2.281       .  S
Mg19         O21   2.302       .  S
Mg19         O48   2.253       .  S
O21        C1369   1.271       .  A
O22        C1361   1.276   1_455  A
O22         Mg29   2.300       .  S
O23          C42   1.267       .  A
O24        C1388   1.277       .  A
O24         Mg40   2.316       .  S
C25         O676   1.236   1_545  S
C25        O1365   1.271   1_455  A
O26         Mg40   2.161       .  S
O26        C1381   1.234       .  S
O27         Mg46   2.141       .  S
O27        Mg691   2.146       .  S
O28         C685   1.268   1_545  A
O28         Mg40   2.299       .  S
Mg29         O45   2.311       .  S
O30         Mg46   2.234       .  S
H31          C36   1.081       .  S
O32         Mg40   2.170       .  S
O32       Mg1347   2.164       .  S
O32         C707   1.237   1_545  S
H33          C35   1.081       .  S
H34          C37   1.081       .  S
C35         O704   1.237       .  S
C35        O1351   1.272       .  A
C36         O677   1.268   1_545  A
C37        O1370   1.234       .  S
O39         Mg46   2.283       .  S
C42         O719   1.274       .  A
C42         C289   1.487       .  S
O43          C44   1.270       .  A
C44        O1368   1.277   1_455  A
C44         C325   1.493       .  S
Mg46       O1348   2.171       .  S
O47         C714   1.274   1_545  A
O49         Mg51   2.138       .  S
O49       Mg1401   2.155   1_455  S
O49          C84   1.234       .  S
C50         O399   1.233       .  S
C50          O87   1.267       .  A
C50          H89   1.081       .  S
Mg51        O416   2.170       .  S
Mg51         O95   2.276       .  S
Mg51         O91   2.235       .  S
Mg51         O62   2.290       .  S
O52         Mg77   2.166       .  S
O52        Mg430   2.179   1_554  S
O52        C1417   1.237       .  S
O53        C1428   1.269       .  A
O53         Mg77   2.301       .  S
C54          O56   1.277       .  A
C54          O68   1.275       .  A
C54         C244   1.498       .  S
O55         C419   1.270   1_554  A
O55         Mg57   2.297       .  S
O56         Mg88   2.305       .  S
Mg57         O63   2.128       .  S
Mg57       O1393   2.155       .  S
Mg57         O71   2.246       .  S
Mg57         O59   2.277       .  S
C58          O96   1.269       .  A
C58        O1408   1.274   1_455  A
C58         C328   1.483       .  S
O59          C66   1.271       .  A
H60          C73   1.081       .  S
C61          O75   1.234       .  S
C61        O1420   1.268       .  A
C61          H86   1.081       .  S
O62          C85   1.267       .  A
O63         Mg77   2.151       .  S
O63         C386   1.233       .  S
O64        C1402   1.274       .  A
O64         Mg94   2.290       .  S
C65          O78   1.271       .  A
C65         O406   1.277       .  A
C65         C217   1.475       .  S
C66          O93   1.278       .  A
C66         C256   1.490       .  S
Mg67         O74   2.132       .  S
Mg67       O1419   2.157   1_455  S
Mg67         O68   2.292       .  S
Mg67         O69   2.304       .  S
Mg67         O96   2.255       .  S
O69         C409   1.271       .  A
O70         C401   1.277   1_554  A
O70         Mg77   2.301       .  S
O71          C90   1.268       .  A
O72         C428   1.277       .  A
O72         Mg88   2.302       .  S
C73        O1396   1.237   1_455  S
C73         O405   1.271   1_554  A
O74         Mg88   2.162       .  S
O74         C421   1.234       .  S
O75         Mg94   2.147       .  S
O75       Mg1411   2.157       .  S
O76        C1405   1.268   1_455  A
O76         Mg88   2.295       .  S
Mg77         O93   2.317       .  S
O78         Mg94   2.254       .  S
H79          C84   1.081       .  S
O80         Mg88   2.152       .  S
O80        Mg387   2.170       .  S
O80        C1427   1.236   1_455  S
H81          C83   1.081       .  S
H82          C85   1.081   1_556  S
C83        O1424   1.236       .  S
C83         O391   1.270       .  A
C84        O1397   1.269   1_455  A
C85         O410   1.234   1_554  S
O87         Mg94   2.289       .  S
C90        O1439   1.270       .  A
C90         C316   1.488       .  S
O91          C92   1.268       .  A
C92         O408   1.277   1_554  A
C92         C229   1.472       .  S
Mg94        O388   2.179       .  S
O95        C1434   1.270   1_455  A
O97         Mg99   2.164       .  S
O97        Mg105   2.155       .  S
O97         C132   1.235       .  S
C98         O111   1.236       .  S
C98         O135   1.271       .  A
C98         H137   1.081       .  S
Mg99        O128   2.157       .  S
Mg99        O143   2.313       .  S
Mg99        O139   2.291       .  S
Mg99        O110   2.305       .  S
O100       Mg142   2.155       .  S
O100       Mg125   2.149       .  S
O100        C121   1.234       .  S
O101        C132   1.271       .  A
O101       Mg125   2.305       .  S
C102        O104   1.274       .  A
C102        O116   1.274       .  A
C102        C208   1.487       .  S
O103        C131   1.271       .  A
O103       Mg105   2.309       .  S
O104       Mg136   2.296       .  S
Mg105       O111   2.164       .  S
Mg105       O119   2.286       .  S
Mg105       O107   2.309       .  S
C106        O144   1.272       .  A
C106        O112   1.276       .  A
C106        C265   1.489       .  S
O107        C114   1.275       .  A
H108        C121   1.081       .  S
C109        O123   1.236       .  S
C109        O124   1.271       .  A
C109        H134   1.081       .  S
O110        C133   1.271       .  A
O111       Mg125   2.163       .  S
O112       Mg142   2.305       .  S
C113        O126   1.273       .  A
C113        O118   1.277       .  A
C113        C253   1.493       .  S
C114        O141   1.271       .  A
C114        C193   1.475       .  S
Mg115       O122   2.158       .  S
Mg115       O123   2.162       .  S
Mg115       O116   2.286       .  S
Mg115       O117   2.300       .  S
Mg115       O144   2.284       .  S
O117        C121   1.269       .  A
O118       Mg125   2.309       .  S
O119        C138   1.273       .  A
O120        C140   1.276       .  A
O120       Mg136   2.308       .  S
O122       Mg136   2.165       .  S
O122        C133   1.236       .  S
O123       Mg142   2.159       .  S
O124       Mg136   2.303       .  S
Mg125       O141   2.272       .  S
O126       Mg142   2.287       .  S
H127        C132   1.081       .  S
O128       Mg136   2.164       .  S
O128        C131   1.236       .  S
H129        C131   1.081       .  S
H130        C133   1.081       .  S
O135       Mg142   2.307       .  S
C138        O143   1.276       .  A
C138        C277   1.487       .  S
O139        C140   1.274       .  A
C140        C241   1.487       .  S
O145       Mg153   2.149       .  S
O145       Mg819   2.148       .  S
O145        C180   1.234       .  S
C146        O159   1.236       .  S
C146        O183   1.270       .  A
C146        H185   1.081       .  S
Mg147       O176   2.153       .  S
Mg147       O817   2.146   1_545  S
Mg147       O191   2.293       .  S
Mg147       O187   2.245       .  S
Mg147       O494   2.297   1_554  S
O148       Mg190   2.153       .  S
O148       Mg509   2.146       .  S
O148        C169   1.235       .  S
O149        C180   1.268       .  A
O149       Mg173   2.293       .  S
C150        O152   1.272       .  A
C150        O164   1.279       .  A
C150        C205   1.489       .  S
O151        C179   1.271       .  A
O151       Mg825   2.310   1_545  S
O152       Mg184   2.265       .  S
Mg153       O159   2.128       .  S
Mg153       O167   2.251       .  S
Mg153       O155   2.328       .  S
Mg153       O823   2.310       .  S
C154        O160   1.273       .  A
C154        O864   1.273       .  A
C154        C292   1.475       .  S
O155        C162   1.278       .  A
H156        C169   1.081       .  S
C157        O171   1.233       .  S
C157        O172   1.268       .  A
C157        H182   1.081       .  S
O158        C181   1.270       .  A
O158       Mg483   2.297       .  S
O159       Mg173   2.157       .  S
O160       Mg190   2.298       .  S
C161        O166   1.269       .  A
C161        O510   1.272   1_554  A
C161        C232   1.481       .  S
C162        O189   1.271       .  A
C162        C196   1.499       .  S
Mg163       O170   2.142       .  S
Mg163       O171   2.150       .  S
Mg163       O164   2.323       .  S
Mg163       O192   2.265       .  S
Mg163       O837   2.303   1_545  S
O165        C169   1.270       .  A
O165       Mg835   2.303       .  S
O166       Mg173   2.267       .  S
O167        C858   1.271       .  A
O168        C188   1.273       .  A
O168       Mg184   2.297       .  S
O170       Mg184   2.165       .  S
O170        C181   1.236       .  S
O171       Mg862   2.149   1_545  S
O172       Mg184   2.296       .  S
Mg173       O484   2.145   1_554  S
Mg173       O189   2.254       .  S
O174        C497   1.272       .  A
O174       Mg190   2.265       .  S
H175        C180   1.081       .  S
O176       Mg520   2.156   1_554  S
O176        C179   1.235       .  S
H177        C179   1.080       .  S
H178        C181   1.081       .  S
O183       Mg526   2.294   1_554  S
Mg184       O512   2.156       .  S
C186        O191   1.272       .  A
C186        O839   1.272   1_545  A
C186        C301   1.472       .  S
O187        C524   1.268   1_554  A
C188        O523   1.269       .  A
C188        C220   1.488       .  S
Mg190       O843   2.153       .  S
Mg190       O519   2.294       .  S
O192        C826   1.273   1_545  A
C193        C194   1.400       .  A
C193        C198   1.404       .  A
C194        H199   1.085       .  S
C194        C195   1.402       .  A
C195        C196   1.419       .  A
C195        C202   1.443       .  S
C196        C197   1.414       .  A
C197        H200   1.084       .  S
C197        C198   1.404       .  A
C198        C201   1.443       .  S
C201        N203   1.157       .  T
C202        N204   1.157       .  T
C205        C206   1.410       .  A
C205        C210   1.414       .  A
C206        H211   1.084       .  S
C206        C207   1.410       .  A
C207        C208   1.412       .  A
C207        C214   1.443       .  S
C208        C209   1.404       .  A
C209        H212   1.085       .  S
C209        C210   1.397       .  A
C210        C213   1.446       .  S
C213        N215   1.157       .  T
C214        N216   1.157       .  T
C217        C218   1.400       .  A
C217        C222   1.409       .  A
C218        H223   1.086       .  S
C218        C219   1.395       .  A
C219        C220   1.418       .  A
C219        C226   1.444       .  S
C220        C221   1.410       .  A
C221        H560   1.084       .  S
C221        C222   1.404       .  A
C222        C561   1.443       .  S
H224        C557   1.084       .  S
C225        C558   1.443       .  S
C225        N227   1.157       .  T
C226        N228   1.157       .  T
C229        C230   1.402       .  A
C229        C570   1.412   1_554  A
C230        H235   1.085       .  S
C230        C231   1.402       .  A
C231        C232   1.418       .  A
C231        C238   1.445       .  S
C232        C569   1.403   1_554  A
C233        H236   1.085       .  S
C233        C234   1.394       .  A
C233        C568   1.403       .  A
C234        C565   1.411       .  A
C234        C237   1.445       .  S
C237        N239   1.157       .  T
C238        N240   1.158       .  T
C241        C242   1.407       .  A
C241        C246   1.410       .  A
C242        H247   1.085       .  S
C242        C243   1.409       .  A
C243        C244   1.416       .  A
C243        C250   1.443       .  S
C244        C245   1.411       .  A
C245        H248   1.085       .  S
C245        C246   1.400       .  A
C246        C249   1.445       .  S
C249        N251   1.157       .  T
C250        N252   1.157       .  T
C253        C254   1.402       .  A
C253        C258   1.419       .  A
C254        H259   1.085       .  S
C254        C255   1.399       .  A
C255        C256   1.419       .  A
C255        C262   1.446       .  S
C256        C257   1.403       .  A
C257        H260   1.085       .  S
C257        C258   1.409       .  A
C258        C261   1.442       .  S
C261        N263   1.157       .  T
C262        N264   1.157       .  T
C265        C266   1.400       .  A
C265        C270   1.417       .  A
C266        H271   1.085       .  S
C266        C267   1.399       .  A
C267        C268   1.422       .  A
C267        C274   1.445       .  S
C268        C269   1.406       .  A
C269        H272   1.084       .  S
C269        C270   1.409       .  A
C270        C273   1.444       .  S
C273        N275   1.157       .  T
C274        N276   1.157       .  T
C277        C278   1.408       .  A
C277        C282   1.409       .  A
C278        H283   1.085       .  S
C278        C279   1.409       .  A
C279        C280   1.416       .  A
C279        C286   1.443       .  S
C280        C281   1.412       .  A
C281        H284   1.084       .  S
C281        C282   1.400       .  A
C282        C285   1.445       .  S
C285        N287   1.157       .  T
C286        N288   1.157       .  T
C289        C294   1.418       .  A
C289        C962   1.407       .  A
C290        H295   1.085       .  S
C290        C291   1.395       .  A
C290        C961   1.406   1_545  A
C291        C964   1.409   1_545  A
C291        C298   1.445       .  S
C292        C293   1.403       .  A
C292        C963   1.409       .  A
C293        H296   1.085       .  S
C293        C294   1.404       .  A
C294        C297   1.445       .  S
C297        N299   1.158       .  T
C298        N300   1.157       .  T
C301        C302   1.398   1_545  A
C301        C306   1.409       .  A
C302        H307   1.084       .  S
C302        C303   1.394       .  A
C303        C304   1.419   1_565  A
C303        C310   1.445       .  S
C304        C305   1.408       .  A
C305        H308   1.084       .  S
C305        C306   1.402       .  A
C306        C309   1.444       .  S
C309        N311   1.157       .  T
C310        N312   1.157       .  T
C313        C318   1.409       .  A
C313       C1658   1.400       .  A
C314        H319   1.085       .  S
C314        C315   1.397       .  A
C314       C1657   1.400   1_455  A
C315       C1660   1.419   1_455  A
C315        C322   1.445       .  S
C316        C317   1.410       .  A
C316       C1659   1.419       .  A
C317        H320   1.084       .  S
C317        C318   1.399       .  A
C318        C321   1.444       .  S
C321        N323   1.157       .  T
C322        N324   1.158       .  T
C325        C326   1.411       .  A
C325        C330   1.417   1_455  A
C326        H331   1.084       .  S
C326        C327   1.402       .  A
C327        C328   1.411       .  A
C327        C334   1.445       .  S
C328        C329   1.405   1_455  A
C329       H1676   1.085       .  S
C329        C330   1.398       .  A
C330       C1677   1.445       .  S
H332       C1673   1.085       .  S
C333       C1674   1.445       .  S
C333        N335   1.157       .  T
C334        N336   1.157       .  T
O337       Mg339   2.141       .  S
O337      Mg1017   2.148   1_545  S
O337        C372   1.234       .  S
C338       O1695   1.234       .  S
C338        O375   1.267       .  A
C338        H377   1.081       .  S
Mg339      O1712   2.164   1_455  S
Mg339       O383   2.294       .  S
Mg339       O379   2.242       .  S
Mg339       O350   2.296       .  S
O340      Mg1726   2.171   1_455  S
O340       Mg365   2.155       .  S
O340       C1033   1.236       .  S
O341       C1044   1.268       .  A
O341       Mg365   2.295       .  S
C342        O344   1.278       .  A
C342        O356   1.271       .  A
C342        C604   1.495       .  S
O343       C1715   1.272   1_455  A
O343       Mg345   2.309       .  S
O344       Mg376   2.316       .  S
Mg345      O1009   2.149       .  S
Mg345       O351   2.120       .  S
Mg345       O359   2.243       .  S
Mg345       O347   2.282       .  S
C346        O384   1.269       .  A
C346       O1024   1.271   1_545  A
C346        C640   1.486       .  S
O347        C354   1.273       .  A
H348        C361   1.081       .  S
C349        O363   1.234       .  S
C349       O1036   1.269       .  A
C349        H374   1.080       .  S
O350        C373   1.269   1_455  A
O351       Mg365   2.165       .  S
O351       C1682   1.234       .  S
O352       C1018   1.271       .  A
O352       Mg382   2.283       .  S
C353        O366   1.268       .  A
C353       O1702   1.276       .  A
C353        C649   1.471       .  S
C354        O381   1.277       .  A
C354        C616   1.498       .  S
Mg355       O362   2.135       .  S
Mg355      O1035   2.145   1_545  S
Mg355       O356   2.281       .  S
Mg355       O357   2.302       .  S
Mg355       O384   2.250       .  S
O357       C1705   1.271       .  A
O358       C1697   1.276   1_455  A
O358       Mg365   2.299       .  S
O359        C378   1.267       .  A
O360       C1724   1.277       .  A
O360       Mg376   2.314       .  S
C361       O1012   1.236   1_545  S
C361       O1701   1.271   1_455  A
O362       Mg376   2.161       .  S
O362       C1717   1.234       .  S
O363      Mg1027   2.145       .  S
O363       Mg382   2.141       .  S
O364       C1021   1.268   1_545  A
O364       Mg376   2.300       .  S
Mg365       O381   2.310       .  S
O366       Mg382   2.234       .  S
H367        C372   1.081       .  S
O368      Mg1683   2.164       .  S
O368       Mg376   2.169       .  S
O368       C1043   1.237   1_545  S
H369        C371   1.081       .  S
H370        C373   1.081       .  S
C371       O1040   1.237       .  S
C371       O1687   1.272       .  A
C372       O1013   1.268   1_545  A
C373       O1706   1.234       .  S
O375       Mg382   2.283       .  S
C378       O1055   1.274       .  A
C378        C625   1.487       .  S
O379        C380   1.270       .  A
C380       O1704   1.277   1_455  A
C380        C661   1.492       .  S
Mg382      O1684   2.171       .  S
O383       C1050   1.274   1_545  A
O385       Mg387   2.138       .  S
O385      Mg1737   2.155   1_455  S
O385        C420   1.234       .  S
C386        O423   1.267   1_554  A
C386        H425   1.081       .  S
Mg387       O431   2.277       .  S
Mg387       O427   2.235       .  S
Mg387       O398   2.291       .  S
O388       Mg413   2.166       .  S
O388       C1753   1.237       .  S
O389       C1764   1.269       .  A
O389       Mg413   2.301       .  S
C390        O392   1.277       .  A
C390        O404   1.274       .  A
C390        C580   1.498       .  S
O391       Mg393   2.297       .  S
O392       Mg424   2.305       .  S
Mg393      O1729   2.155       .  S
Mg393       O399   2.128       .  S
Mg393       O407   2.245       .  S
Mg393       O395   2.277       .  S
C394        O432   1.269       .  A
C394       O1744   1.274   1_455  A
C394        C664   1.483       .  S
O395        C402   1.271       .  A
H396        C409   1.081       .  S
C397        O411   1.234       .  S
C397       O1756   1.268       .  A
C397        H422   1.081       .  S
O398        C421   1.267       .  A
O399       Mg413   2.150       .  S
O400       C1738   1.274       .  A
O400       Mg430   2.289       .  S
C401        O414   1.271       .  A
C401        C553   1.474       .  S
C402        O429   1.278       .  A
C402        C592   1.490       .  S
Mg403       O410   2.130       .  S
Mg403      O1755   2.156   1_455  S
Mg403       O404   2.290       .  S
Mg403       O405   2.304       .  S
Mg403       O432   2.251       .  S
O406       Mg413   2.301       .  S
O407        C426   1.268       .  A
O408       Mg424   2.301       .  S
C409       O1732   1.237   1_455  S
O410       Mg424   2.162       .  S
O411      Mg1747   2.156       .  S
O411       Mg430   2.147       .  S
O412       C1741   1.268   1_455  A
O412       Mg424   2.295       .  S
Mg413       O429   2.318       .  S
O414       Mg430   2.252       .  S
H415        C420   1.081       .  S
O416       Mg424   2.153   1_554  S
O416       C1763   1.236   1_454  S
H417        C419   1.081       .  S
H418        C421   1.081       .  S
C419       O1760   1.236   1_556  S
C420       O1733   1.269   1_455  A
O423       Mg430   2.289       .  S
C426       O1775   1.270       .  A
C426        C652   1.488       .  S
O427        C428   1.268       .  A
C428        C565   1.472       .  S
O431       C1770   1.270   1_455  A
O433       Mg435   2.164       .  S
O433       Mg441   2.155       .  S
O433        C468   1.235       .  S
C434        O447   1.236       .  S
C434        O471   1.271       .  A
C434        H473   1.081       .  S
Mg435       O464   2.156       .  S
Mg435       O479   2.313       .  S
Mg435       O475   2.291       .  S
Mg435       O446   2.305       .  S
O436       Mg478   2.154       .  S
O436       Mg461   2.148       .  S
O436        C457   1.234       .  S
O437        C468   1.271       .  A
O437       Mg461   2.305       .  S
C438        O440   1.274       .  A
C438        O452   1.274       .  A
C438        C544   1.487       .  S
O439        C467   1.271       .  A
O439       Mg441   2.309       .  S
O440       Mg472   2.296       .  S
Mg441       O447   2.164       .  S
Mg441       O455   2.285       .  S
Mg441       O443   2.309       .  S
C442        O480   1.272       .  A
C442        O448   1.276       .  A
C442        C601   1.489       .  S
O443        C450   1.275       .  A
H444        C457   1.081       .  S
C445        O459   1.236       .  S
C445        O460   1.271       .  A
C445        H470   1.081       .  S
O446        C469   1.271       .  A
O447       Mg461   2.163       .  S
O448       Mg478   2.304       .  S
C449        O462   1.273       .  A
C449        O454   1.277       .  A
C449        C589   1.494       .  S
C450        O477   1.271       .  A
C450        C529   1.475       .  S
Mg451       O458   2.158       .  S
Mg451       O459   2.162       .  S
Mg451       O452   2.287       .  S
Mg451       O453   2.300       .  S
Mg451       O480   2.284       .  S
O453        C457   1.269       .  A
O454       Mg461   2.310       .  S
O455        C474   1.273       .  A
O456        C476   1.276       .  A
O456       Mg472   2.308       .  S
O458       Mg472   2.165       .  S
O458        C469   1.236       .  S
O459       Mg478   2.159       .  S
O460       Mg472   2.302       .  S
Mg461       O477   2.273       .  S
O462       Mg478   2.288       .  S
H463        C468   1.081       .  S
O464       Mg472   2.163       .  S
O464        C467   1.236       .  S
H465        C467   1.081       .  S
H466        C469   1.081       .  S
O471       Mg478   2.307       .  S
C474        O479   1.276       .  A
C474        C613   1.487       .  S
O475        C476   1.274       .  A
C476        C577   1.487       .  S
O481      Mg1155   2.148       .  S
O481       Mg489   2.150       .  S
O481        C516   1.234       .  S
C482        O495   1.236       .  S
C482        O519   1.270       .  A
C482        H521   1.081       .  S
Mg483      O1153   2.147   1_545  S
Mg483       O512   2.152       .  S
Mg483       O527   2.295       .  S
Mg483       O523   2.246       .  S
O484       Mg526   2.153       .  S
O484        C505   1.235       .  S
O485        C516   1.268       .  A
O485       Mg509   2.292       .  S
C486        O488   1.272       .  A
C486        O500   1.278       .  A
C486        C541   1.489       .  S
O487        C515   1.271       .  A
O487      Mg1161   2.310   1_545  S
O488       Mg520   2.267       .  S
Mg489       O495   2.128       .  S
Mg489      O1159   2.309       .  S
Mg489       O503   2.251       .  S
Mg489       O491   2.328       .  S
C490       O1200   1.273       .  A
C490        O496   1.273       .  A
C490        C628   1.474       .  S
O491        C498   1.278       .  A
H492        C505   1.081       .  S
C493        O507   1.233       .  S
C493        O508   1.268       .  A
C493        H518   1.081       .  S
O494        C517   1.270       .  A
O495       Mg509   2.157       .  S
O496       Mg526   2.297       .  S
C497        O502   1.269       .  A
C497        C568   1.482       .  S
C498        O525   1.271       .  A
C498        C532   1.499       .  S
Mg499       O506   2.141       .  S
Mg499       O507   2.150       .  S
Mg499       O500   2.322       .  S
Mg499      O1173   2.302   1_545  S
Mg499       O528   2.264       .  S
O501        C505   1.270       .  A
O501      Mg1171   2.303       .  S
O502       Mg509   2.267       .  S
O503       C1194   1.271       .  A
O504        C524   1.273       .  A
O504       Mg520   2.297       .  S
O506       Mg520   2.164       .  S
O506        C517   1.236       .  S
O507      Mg1198   2.150   1_545  S
O508       Mg520   2.297       .  S
Mg509       O525   2.255       .  S
O510       Mg526   2.265       .  S
H511        C516   1.081       .  S
O512        C515   1.235       .  S
H513        C515   1.080       .  S
H514        C517   1.081       .  S
C522       O1175   1.272   1_545  A
C522        O527   1.272       .  A
C522        C637   1.472       .  S
C524        C556   1.488       .  S
Mg526      O1179   2.152       .  S
O528       C1162   1.273   1_545  A
C529        C530   1.400       .  A
C529        C534   1.405       .  A
C530        H535   1.085       .  S
C530        C531   1.402       .  A
C531        C532   1.419       .  A
C531        C538   1.443       .  S
C532        C533   1.414       .  A
C533        H536   1.084       .  S
C533        C534   1.404       .  A
C534        C537   1.443       .  S
C537        N539   1.157       .  T
C538        N540   1.157       .  T
C541        C542   1.410       .  A
C541        C546   1.415       .  A
C542        H547   1.084       .  S
C542        C543   1.410       .  A
C543        C544   1.412       .  A
C543        C550   1.443       .  S
C544        C545   1.404       .  A
C545        H548   1.085       .  S
C545        C546   1.397       .  A
C546        C549   1.446       .  S
C549        N551   1.157       .  T
C550        N552   1.157       .  T
C553        C554   1.400   1_556  A
C553        C558   1.409       .  A
C554        H559   1.086       .  S
C554        C555   1.396       .  A
C555        C556   1.418   1_554  A
C555        C562   1.445       .  S
C556        C557   1.410       .  A
C557        C558   1.404       .  A
C561        N563   1.157       .  T
C562        N564   1.157       .  T
C565        C566   1.402       .  A
C566        H571   1.085       .  S
C566        C567   1.402       .  A
C567        C568   1.419       .  A
C567        C574   1.445       .  S
C569        H572   1.085       .  S
C569        C570   1.394       .  A
C570        C573   1.445       .  S
C573        N575   1.157       .  T
C574        N576   1.158       .  T
C577        C578   1.407       .  A
C577        C582   1.410       .  A
C578        H583   1.085       .  S
C578        C579   1.409       .  A
C579        C580   1.416       .  A
C579        C586   1.443       .  S
C580        C581   1.411       .  A
C581        H584   1.085       .  S
C581        C582   1.400       .  A
C582        C585   1.445       .  S
C585        N587   1.157       .  T
C586        N588   1.157       .  T
C589        C590   1.402       .  A
C589        C594   1.419       .  A
C590        H595   1.085       .  S
C590        C591   1.399       .  A
C591        C592   1.419       .  A
C591        C598   1.446       .  S
C592        C593   1.403       .  A
C593        H596   1.085       .  S
C593        C594   1.409       .  A
C594        C597   1.442       .  S
C597        N599   1.157       .  T
C598        N600   1.157       .  T
C601        C602   1.400       .  A
C601        C606   1.417       .  A
C602        H607   1.085       .  S
C602        C603   1.399       .  A
C603        C604   1.421       .  A
C603        C610   1.445       .  S
C604        C605   1.406       .  A
C605        H608   1.084       .  S
C605        C606   1.409       .  A
C606        C609   1.444       .  S
C609        N611   1.157       .  T
C610        N612   1.157       .  T
C613        C614   1.408       .  A
C613        C618   1.408       .  A
C614        H619   1.085       .  S
C614        C615   1.409       .  A
C615        C616   1.416       .  A
C615        C622   1.443       .  S
C616        C617   1.412       .  A
C617        H620   1.084       .  S
C617        C618   1.400       .  A
C618        C621   1.445       .  S
C621        N623   1.157       .  T
C622        N624   1.157       .  T
C625       C1298   1.407       .  A
C625        C630   1.418       .  A
C626        H631   1.085       .  S
C626       C1297   1.406   1_545  A
C626        C627   1.395       .  A
C627       C1300   1.409   1_545  A
C627        C634   1.445       .  S
C628       C1299   1.409       .  A
C628        C629   1.403       .  A
C629        H632   1.085       .  S
C629        C630   1.404       .  A
C630        C633   1.445       .  S
C633        N635   1.158       .  T
C634        N636   1.157       .  T
C637        C638   1.398   1_545  A
C637        C642   1.409       .  A
C638        H643   1.084       .  S
C638        C639   1.394       .  A
C639        C640   1.419   1_565  A
C639        C646   1.445       .  S
C640        C641   1.409       .  A
C641        H644   1.083       .  S
C641        C642   1.402       .  A
C642        C645   1.444       .  S
C645        N647   1.157       .  T
C646        N648   1.157       .  T
C649       C1994   1.400       .  A
C649        C654   1.408       .  A
C650        H655   1.085       .  S
C650       C1993   1.400   1_455  A
C650        C651   1.397       .  A
C651       C1996   1.418   1_455  A
C651        C658   1.445       .  S
C652       C1995   1.418       .  A
C652        C653   1.410       .  A
C653        H656   1.084       .  S
C653        C654   1.399       .  A
C654        C657   1.444       .  S
C657        N659   1.157       .  T
C658        N660   1.158       .  T
C661        C662   1.411       .  A
C661        C666   1.417   1_455  A
C662        H667   1.084       .  S
C662        C663   1.402       .  A
C663        C664   1.411       .  A
C663        C670   1.445       .  S
C664        C665   1.405   1_455  A
C665       H2012   1.085       .  S
C665        C666   1.398       .  A
C666       C2013   1.445       .  S
H668       C2009   1.085       .  S
C669       C2010   1.445       .  S
C669        N671   1.157       .  T
C670        N672   1.157       .  T
O673       Mg675   2.141       .  S
O673        C708   1.234       .  S
C674       O2031   1.234       .  S
C674        O711   1.267       .  A
C674        H713   1.081       .  S
Mg675      O2048   2.165   1_455  S
Mg675       O719   2.294       .  S
Mg675       O715   2.243       .  S
Mg675       O686   2.296       .  S
O676      Mg2062   2.171   1_455  S
O676       Mg701   2.157       .  S
O677       Mg701   2.295       .  S
C678        O680   1.278       .  A
C678        O692   1.272       .  A
C678        C940   1.494       .  S
O679       C2051   1.273   1_455  A
O679       Mg681   2.310       .  S
O680       Mg712   2.314       .  S
Mg681       O687   2.121       .  S
Mg681       O695   2.247       .  S
Mg681       O683   2.286       .  S
C682        O720   1.269       .  A
C682        C976   1.486       .  S
O683        C690   1.274       .  A
H684        C697   1.081       .  S
C685        O699   1.234       .  S
C685        H710   1.080       .  S
O686        C709   1.268   1_455  A
O687       Mg701   2.166       .  S
O687       C2018   1.234       .  S
O688       Mg718   2.284       .  S
C689        O702   1.268       .  A
C689       O2038   1.276       .  A
C689        C985   1.470       .  S
C690        O717   1.278       .  A
C690        C952   1.499       .  S
Mg691       O698   2.135       .  S
Mg691       O692   2.282       .  S
Mg691       O693   2.301       .  S
Mg691       O720   2.250       .  S
O693       C2041   1.271       .  A
O694       C2033   1.276   1_455  A
O694       Mg701   2.301       .  S
O695        C714   1.267       .  A
O696       C2060   1.277       .  A
O696       Mg712   2.315       .  S
C697       O2037   1.271   1_455  A
O698       Mg712   2.159       .  S
O698       C2053   1.234       .  S
O699       Mg718   2.140       .  S
O700       Mg712   2.300       .  S
Mg701       O717   2.312       .  S
O702       Mg718   2.232       .  S
H703        C708   1.081       .  S
O704      Mg2019   2.165       .  S
O704       Mg712   2.167       .  S
H705        C707   1.081       .  S
H706        C709   1.081       .  S
C707       O2023   1.273       .  A
C709       O2042   1.234       .  S
O711       Mg718   2.282       .  S
C714        C961   1.487       .  S
O715        C716   1.270       .  A
C716       O2040   1.277   1_455  A
C716        C997   1.492       .  S
Mg718      O2020   2.170       .  S
O721       Mg723   2.134       .  S
O721      Mg2073   2.155   1_455  S
O721        C756   1.234       .  S
C722       O1071   1.233       .  S
C722        O759   1.267       .  A
C722        H761   1.081       .  S
Mg723      O1088   2.169       .  S
Mg723       O767   2.275       .  S
Mg723       O763   2.231       .  S
Mg723       O734   2.291       .  S
O724      Mg1102   2.179   1_554  S
O724       Mg749   2.166       .  S
O724       C2089   1.236       .  S
O725       C2100   1.269       .  A
O725       Mg749   2.300       .  S
C726        O728   1.276       .  A
C726        O740   1.274       .  A
C726        C916   1.498       .  S
O727       C1091   1.270   1_554  A
O727       Mg729   2.296       .  S
O728       Mg760   2.305       .  S
Mg729      O2065   2.155       .  S
Mg729       O735   2.127       .  S
Mg729       O743   2.246       .  S
Mg729       O731   2.274       .  S
C730        O768   1.269       .  A
C730       O2080   1.274   1_455  A
C730       C1000   1.484       .  S
O731        C738   1.271       .  A
H732        C745   1.081       .  S
C733        O747   1.234       .  S
C733       O2092   1.268       .  A
C733        H758   1.081       .  S
O734        C757   1.268       .  A
O735       Mg749   2.149       .  S
O735       C1058   1.233       .  S
O736       C2074   1.274       .  A
O736       Mg766   2.291       .  S
C737        O750   1.271       .  A
C737       O1078   1.277       .  A
C737        C889   1.475       .  S
C738        O765   1.278       .  A
C738        C928   1.490       .  S
Mg739       O746   2.131       .  S
Mg739      O2091   2.157   1_455  S
Mg739       O740   2.291       .  S
Mg739       O741   2.304       .  S
Mg739       O768   2.253       .  S
O741       C1081   1.271       .  A
O742       C1073   1.277   1_554  A
O742       Mg749   2.301       .  S
O743        C762   1.268       .  A
O744       C1100   1.276       .  A
O744       Mg760   2.300       .  S
C745       O2068   1.236   1_455  S
C745       O1077   1.271   1_554  A
O746       Mg760   2.160       .  S
O746       C1093   1.234       .  S
O747      Mg2083   2.157       .  S
O747       Mg766   2.148       .  S
O748       C2077   1.268   1_455  A
O748       Mg760   2.296       .  S
Mg749       O765   2.317       .  S
O750       Mg766   2.254       .  S
H751        C756   1.081       .  S
O752      Mg1059   2.170       .  S
O752       Mg760   2.152       .  S
O752       C2099   1.236   1_455  S
H753        C755   1.081       .  S
H754        C757   1.081   1_556  S
C755       O2096   1.236       .  S
C755       O1063   1.270       .  A
C756       O2069   1.269   1_455  A
C757       O1082   1.234   1_554  S
O759       Mg766   2.289       .  S
C762       O2111   1.270       .  A
C762        C988   1.487       .  S
O763        C764   1.268       .  A
C764       O1080   1.276   1_554  A
C764        C901   1.471       .  S
Mg766      O1060   2.179       .  S
O767       C2106   1.270   1_455  A
O769       Mg771   2.165       .  S
O769       Mg777   2.153       .  S
O769        C804   1.236       .  S
C770        O783   1.236       .  S
C770        O807   1.271       .  A
C770        H809   1.081       .  S
Mg771       O800   2.157       .  S
Mg771       O815   2.314       .  S
Mg771       O811   2.290       .  S
Mg771       O782   2.305       .  S
O772       Mg814   2.155       .  S
O772       Mg797   2.147       .  S
O772        C793   1.234       .  S
O773        C804   1.271       .  A
O773       Mg797   2.307       .  S
C774        O776   1.274       .  A
C774        O788   1.274       .  A
C774        C880   1.486       .  S
O775        C803   1.271       .  A
O775       Mg777   2.310       .  S
O776       Mg808   2.298       .  S
Mg777       O783   2.164       .  S
Mg777       O791   2.286       .  S
Mg777       O779   2.309       .  S
C778        O816   1.272       .  A
C778        O784   1.276       .  A
C778        C937   1.488       .  S
O779        C786   1.274       .  A
H780        C793   1.081       .  S
C781        O795   1.236       .  S
C781        O796   1.270       .  A
C781        H806   1.081       .  S
O782        C805   1.271       .  A
O783       Mg797   2.161       .  S
O784       Mg814   2.303       .  S
C785        O798   1.273       .  A
C785        O790   1.277       .  A
C785        C925   1.492       .  S
C786        O813   1.271       .  A
C786        C865   1.474       .  S
Mg787       O794   2.158       .  S
Mg787       O795   2.162       .  S
Mg787       O788   2.284       .  S
Mg787       O789   2.299       .  S
Mg787       O816   2.283       .  S
O789        C793   1.269       .  A
O790       Mg797   2.310       .  S
O791        C810   1.273       .  A
O792        C812   1.276       .  A
O792       Mg808   2.309       .  S
O794       Mg808   2.165       .  S
O794        C805   1.235       .  S
O795       Mg814   2.157       .  S
O796       Mg808   2.302       .  S
Mg797       O813   2.272       .  S
O798       Mg814   2.284       .  S
H799        C804   1.081       .  S
O800       Mg808   2.165       .  S
O800        C803   1.236       .  S
H801        C803   1.081       .  S
H802        C805   1.081       .  S
O807       Mg814   2.307       .  S
C810        O815   1.276       .  A
C810        C949   1.488       .  S
O811        C812   1.274       .  A
C812        C913   1.487       .  S
O817       Mg825   2.150       .  S
O817        C852   1.234       .  S
C818        O831   1.236       .  S
C818        O855   1.270       .  A
C818        H857   1.081       .  S
Mg819       O848   2.151       .  S
Mg819       O863   2.293       .  S
Mg819       O859   2.248       .  S
Mg819      O1166   2.297   1_554  S
O820       Mg862   2.152       .  S
O820      Mg1181   2.144       .  S
O820        C841   1.235       .  S
O821        C852   1.267       .  A
O821       Mg845   2.291       .  S
C822        O824   1.271       .  A
C822        O836   1.279       .  A
C822        C877   1.490       .  S
O823        C851   1.271       .  A
O824       Mg856   2.264       .  S
Mg825       O831   2.128       .  S
Mg825       O839   2.253       .  S
Mg825       O827   2.332       .  S
C826        O832   1.273       .  A
C826        C964   1.475       .  S
O827        C834   1.278       .  A
H828        C841   1.081       .  S
C829        O843   1.233       .  S
C829        O844   1.268       .  A
C829        H854   1.081       .  S
O830        C853   1.270       .  A
O830      Mg1155   2.297       .  S
O831       Mg845   2.157       .  S
O832       Mg862   2.297       .  S
C833       O1182   1.272   1_554  A
C833        O838   1.268       .  A
C833        C904   1.480       .  S
C834        O861   1.270       .  A
C834        C868   1.499       .  S
Mg835       O842   2.141       .  S
Mg835       O843   2.152       .  S
Mg835       O836   2.324       .  S
Mg835       O864   2.263       .  S
O837        C841   1.270       .  A
O838       Mg845   2.265       .  S
O840        C860   1.273       .  A
O840       Mg856   2.296       .  S
O842       Mg856   2.164       .  S
O842        C853   1.236       .  S
O844       Mg856   2.297       .  S
Mg845      O1156   2.145   1_554  S
Mg845       O861   2.250       .  S
O846       C1169   1.272       .  A
O846       Mg862   2.260       .  S
H847        C852   1.081       .  S
O848      Mg1192   2.155   1_554  S
O848        C851   1.236       .  S
H849        C851   1.080       .  S
H850        C853   1.081       .  S
O855      Mg1198   2.295   1_554  S
Mg856      O1184   2.154       .  S
C858        O863   1.272       .  A
C858        C973   1.470       .  S
O859       C1196   1.269   1_554  A
C860       O1195   1.269       .  A
C860        C892   1.488       .  S
Mg862      O1191   2.295       .  S
C865        C866   1.401       .  A
C865        C870   1.404       .  A
C866        H871   1.085       .  S
C866        C867   1.402       .  A
C867        C868   1.418       .  A
C867        C874   1.442       .  S
C868        C869   1.414       .  A
C869        H872   1.084       .  S
C869        C870   1.404       .  A
C870        C873   1.443       .  S
C873        N875   1.157       .  T
C874        N876   1.157       .  T
C877        C878   1.410       .  A
C877        C882   1.415       .  A
C878        H883   1.084       .  S
C878        C879   1.410       .  A
C879        C880   1.411       .  A
C879        C886   1.442       .  S
C880        C881   1.404       .  A
C881        H884   1.085       .  S
C881        C882   1.397       .  A
C882        C885   1.446       .  S
C885        N887   1.157       .  T
C886        N888   1.157       .  T
C889        C890   1.401       .  A
C889        C894   1.409       .  A
C890        H895   1.086       .  S
C890        C891   1.396       .  A
C891        C892   1.418       .  A
C891        C898   1.444       .  S
C892        C893   1.410       .  A
C893       H1232   1.084       .  S
C893        C894   1.404       .  A
C894       C1233   1.443       .  S
H896       C1229   1.084       .  S
C897       C1230   1.443       .  S
C897        N899   1.157       .  T
C898        N900   1.157       .  T
C901        C902   1.402       .  A
C901       C1242   1.411   1_554  A
C902        H907   1.085       .  S
C902        C903   1.402       .  A
C903        C904   1.418       .  A
C903        C910   1.445       .  S
C904       C1241   1.403   1_554  A
C905        H908   1.085       .  S
C905       C1240   1.403       .  A
C905        C906   1.393       .  A
C906       C1237   1.411       .  A
C906        C909   1.446       .  S
C909        N911   1.157       .  T
C910        N912   1.158       .  T
C913        C914   1.407       .  A
C913        C918   1.409       .  A
C914        H919   1.085       .  S
C914        C915   1.409       .  A
C915        C916   1.416       .  A
C915        C922   1.443       .  S
C916        C917   1.411       .  A
C917        H920   1.085       .  S
C917        C918   1.400       .  A
C918        C921   1.445       .  S
C921        N923   1.157       .  T
C922        N924   1.157       .  T
C925        C926   1.402       .  A
C925        C930   1.419       .  A
C926        H931   1.085       .  S
C926        C927   1.398       .  A
C927        C928   1.419       .  A
C927        C934   1.446       .  S
C928        C929   1.403       .  A
C929        H932   1.085       .  S
C929        C930   1.409       .  A
C930        C933   1.442       .  S
C933        N935   1.157       .  T
C934        N936   1.157       .  T
C937        C938   1.400       .  A
C937        C942   1.417       .  A
C938        H943   1.085       .  S
C938        C939   1.399       .  A
C939        C940   1.421       .  A
C939        C946   1.445       .  S
C940        C941   1.406       .  A
C941        H944   1.084       .  S
C941        C942   1.409       .  A
C942        C945   1.444       .  S
C945        N947   1.157       .  T
C946        N948   1.157       .  T
C949        C950   1.408       .  A
C949        C954   1.409       .  A
C950        H955   1.085       .  S
C950        C951   1.409       .  A
C951        C952   1.416       .  A
C951        C958   1.443       .  S
C952        C953   1.412       .  A
C953        H956   1.084       .  S
C953        C954   1.400       .  A
C954        C957   1.445       .  S
C957        N959   1.157       .  T
C958        N960   1.157       .  T
C961        C966   1.418       .  A
C962        H967   1.085       .  S
C962        C963   1.395       .  A
C963        C970   1.445       .  S
C964        C965   1.404       .  A
C965        H968   1.085       .  S
C965        C966   1.404       .  A
C966        C969   1.445       .  S
C969        N971   1.158       .  T
C970        N972   1.157       .  T
C973        C974   1.398       .  A
C973        C978   1.408       .  A
C974        H979   1.084       .  S
C974        C975   1.394       .  A
C975        C976   1.419       .  A
C975        C982   1.445       .  S
C976        C977   1.409       .  A
C977        H980   1.083       .  S
C977        C978   1.401       .  A
C978        C981   1.444       .  S
C981        N983   1.157       .  T
C982        N984   1.157       .  T
C985       C2330   1.400       .  A
C985        C990   1.408       .  A
C986        H991   1.085       .  S
C986       C2329   1.400   1_455  A
C986        C987   1.397       .  A
C987       C2332   1.418   1_455  A
C987        C994   1.445       .  S
C988       C2331   1.418       .  A
C988        C989   1.409       .  A
C989        H992   1.084       .  S
C989        C990   1.399       .  A
C990        C993   1.444       .  S
C993        N995   1.157       .  T
C994        N996   1.158       .  T
C997        C998   1.411       .  A
C997       C1002   1.417   1_455  A
C998       H1003   1.084       .  S
C998        C999   1.402       .  A
C999       C1000   1.412       .  A
C999       C1006   1.445       .  S
C1000      C1001   1.405   1_455  A
C1001      H2348   1.085       .  S
C1001      C1002   1.398       .  A
C1002      C2349   1.445       .  S
H1004      C2345   1.085       .  S
C1005      C2346   1.445       .  S
C1005      N1007   1.157       .  T
C1006      N1008   1.157       .  T
O1009     Mg1011   2.142       .  S
O1009      C1044   1.234       .  S
C1010      O2367   1.234       .  S
C1010      O1047   1.267       .  A
C1010      H1049   1.081       .  S
Mg1011     O2384   2.165   1_455  S
Mg1011     O1055   2.294       .  S
Mg1011     O1051   2.243       .  S
Mg1011     O1022   2.296       .  S
O1012     Mg2398   2.171   1_455  S
O1012     Mg1037   2.158       .  S
O1013     Mg1037   2.294       .  S
C1014      O1016   1.278       .  A
C1014      O1028   1.271       .  A
C1014      C1276   1.494       .  S
O1015      C2387   1.272   1_455  A
O1015     Mg1017   2.309       .  S
O1016     Mg1048   2.315       .  S
Mg1017     O1023   2.121       .  S
Mg1017     O1031   2.247       .  S
Mg1017     O1019   2.287       .  S
C1018      O1056   1.269       .  A
C1018      C1312   1.486       .  S
O1019      C1026   1.274       .  A
H1020      C1033   1.081       .  S
C1021      O1035   1.234       .  S
C1021      H1046   1.080       .  S
O1022      C1045   1.268   1_455  A
O1023     Mg1037   2.166       .  S
O1023      C2354   1.234       .  S
O1024     Mg1054   2.286       .  S
C1025      O1038   1.269       .  A
C1025      O2374   1.276       .  A
C1025      C1321   1.471       .  S
C1026      O1053   1.278       .  A
C1026      C1288   1.500       .  S
Mg1027     O1034   2.136       .  S
Mg1027     O1028   2.281       .  S
Mg1027     O1029   2.301       .  S
Mg1027     O1056   2.252       .  S
O1029      C2377   1.271       .  A
O1030      C2369   1.276   1_455  A
O1030     Mg1037   2.301       .  S
O1031      C1050   1.267       .  A
O1032      C2396   1.277       .  A
O1032     Mg1048   2.317       .  S
C1033      O2373   1.271   1_455  A
O1034     Mg1048   2.159       .  S
O1034      C2389   1.234       .  S
O1035     Mg1054   2.141       .  S
O1036     Mg1048   2.300       .  S
Mg1037     O1053   2.312       .  S
O1038     Mg1054   2.234       .  S
H1039      C1044   1.081       .  S
O1040     Mg2355   2.165       .  S
O1040     Mg1048   2.168       .  S
H1041      C1043   1.081       .  S
H1042      C1045   1.081       .  S
C1043      O2359   1.273       .  A
C1045      O2378   1.234       .  S
O1047     Mg1054   2.283       .  S
C1050      C1297   1.487       .  S
O1051      C1052   1.270       .  A
C1052      O2376   1.277   1_455  A
C1052      C1333   1.493       .  S
Mg1054     O2356   2.171       .  S
O1057     Mg1059   2.135       .  S
O1057     Mg2409   2.154   1_455  S
O1057      C1092   1.234       .  S
C1058      O1095   1.267   1_554  A
C1058      H1097   1.081       .  S
Mg1059     O1103   2.276       .  S
Mg1059     O1099   2.230       .  S
Mg1059     O1070   2.291       .  S
O1060     Mg1085   2.167       .  S
O1060      C2425   1.236       .  S
O1061      C2436   1.269       .  A
O1061     Mg1085   2.300       .  S
C1062      O1064   1.276       .  A
C1062      O1076   1.275       .  A
C1062      C1252   1.498       .  S
O1063     Mg1065   2.296       .  S
O1064     Mg1096   2.303       .  S
Mg1065     O2401   2.155       .  S
Mg1065     O1071   2.129       .  S
Mg1065     O1079   2.248       .  S
Mg1065     O1067   2.276       .  S
C1066      O1104   1.269       .  A
C1066      O2416   1.274   1_455  A
C1066      C1336   1.484       .  S
O1067      C1074   1.271       .  A
H1068      C1081   1.081       .  S
C1069      O1083   1.234       .  S
C1069      O2428   1.268       .  A
C1069      H1094   1.081       .  S
O1070      C1093   1.268       .  A
O1071     Mg1085   2.149       .  S
O1072      C2410   1.274       .  A
O1072     Mg1102   2.290       .  S
C1073      O1086   1.271       .  A
C1073      C1225   1.476       .  S
C1074      O1101   1.278       .  A
C1074      C1264   1.490       .  S
Mg1075     O1082   2.132       .  S
Mg1075     O2427   2.157       .  S
Mg1075     O1076   2.293       .  S
Mg1075     O1077   2.304       .  S
Mg1075     O1104   2.255       .  S
O1078     Mg1085   2.301       .  S
O1079      C1098   1.268       .  A
O1080     Mg1096   2.301       .  S
C1081      O2404   1.236   1_455  S
O1082     Mg1096   2.161       .  S
O1083     Mg2419   2.157       .  S
O1083     Mg1102   2.149       .  S
O1084      C2413   1.268   1_455  A
O1084     Mg1096   2.296       .  S
Mg1085     O1101   2.318       .  S
O1086     Mg1102   2.256       .  S
H1087      C1092   1.081       .  S
O1088     Mg1096   2.151   1_554  S
O1088      C2435   1.236   1_454  S
H1089      C1091   1.081       .  S
H1090      C1093   1.081       .  S
C1091      O2432   1.236   1_556  S
C1092      O2405   1.269   1_455  A
O1095     Mg1102   2.289       .  S
C1098      O2447   1.270       .  A
C1098      C1324   1.487       .  S
O1099      C1100   1.268       .  A
C1100      C1237   1.471       .  S
O1103      C2442   1.270   1_455  A
O1105     Mg1107   2.165       .  S
O1105     Mg1113   2.153       .  S
O1105      C1140   1.236       .  S
C1106      O1119   1.236       .  S
C1106      O1143   1.271       .  A
C1106      H1145   1.081       .  S
Mg1107     O1136   2.157       .  S
Mg1107     O1151   2.314       .  S
Mg1107     O1147   2.291       .  S
Mg1107     O1118   2.305       .  S
O1108     Mg1150   2.155       .  S
O1108     Mg1133   2.148       .  S
O1108      C1129   1.234       .  S
O1109      C1140   1.271       .  A
O1109     Mg1133   2.307       .  S
C1110      O1112   1.274       .  A
C1110      O1124   1.273       .  A
C1110      C1216   1.486       .  S
O1111      C1139   1.271       .  A
O1111     Mg1113   2.310       .  S
O1112     Mg1144   2.297       .  S
Mg1113     O1119   2.166       .  S
Mg1113     O1127   2.287       .  S
Mg1113     O1115   2.308       .  S
C1114      O1152   1.272       .  A
C1114      O1120   1.276       .  A
C1114      C1273   1.488       .  S
O1115      C1122   1.275       .  A
H1116      C1129   1.081       .  S
C1117      O1131   1.236       .  S
C1117      O1132   1.271       .  A
C1117      H1142   1.081       .  S
O1118      C1141   1.271       .  A
O1119     Mg1133   2.161       .  S
O1120     Mg1150   2.304       .  S
C1121      O1134   1.273       .  A
C1121      O1126   1.277       .  A
C1121      C1261   1.493       .  S
C1122      O1149   1.271       .  A
C1122      C1201   1.474       .  S
Mg1123     O1130   2.158       .  S
Mg1123     O1131   2.162       .  S
Mg1123     O1124   2.284       .  S
Mg1123     O1125   2.300       .  S
Mg1123     O1152   2.282       .  S
O1125      C1129   1.269       .  A
O1126     Mg1133   2.312       .  S
O1127      C1146   1.273       .  A
O1128      C1148   1.276       .  A
O1128     Mg1144   2.309       .  S
O1130     Mg1144   2.165       .  S
O1130      C1141   1.236       .  S
O1131     Mg1150   2.158       .  S
O1132     Mg1144   2.302       .  S
Mg1133     O1149   2.272       .  S
O1134     Mg1150   2.286       .  S
H1135      C1140   1.081       .  S
O1136     Mg1144   2.164       .  S
O1136      C1139   1.236       .  S
H1137      C1139   1.081       .  S
H1138      C1141   1.081       .  S
O1143     Mg1150   2.307       .  S
C1146      O1151   1.276       .  A
C1146      C1285   1.488       .  S
O1147      C1148   1.274       .  A
C1148      C1249   1.486       .  S
O1153     Mg1161   2.150       .  S
O1153      C1188   1.234       .  S
C1154      O1167   1.236       .  S
C1154      O1191   1.270       .  A
C1154      H1193   1.081       .  S
Mg1155     O1184   2.151       .  S
Mg1155     O1199   2.293       .  S
Mg1155     O1195   2.247       .  S
O1156     Mg1198   2.152       .  S
O1156      C1177   1.235       .  S
O1157      C1188   1.267       .  A
O1157     Mg1181   2.292       .  S
C1158      O1160   1.272       .  A
C1158      O1172   1.279       .  A
C1158      C1213   1.490       .  S
O1159      C1187   1.271       .  A
O1160     Mg1192   2.264       .  S
Mg1161     O1167   2.128       .  S
Mg1161     O1175   2.252       .  S
Mg1161     O1163   2.331       .  S
C1162      O1168   1.273       .  A
C1162      C1300   1.475       .  S
O1163      C1170   1.278       .  A
H1164      C1177   1.081       .  S
C1165      O1179   1.233       .  S
C1165      O1180   1.268       .  A
C1165      H1190   1.081       .  S
O1166      C1189   1.270       .  A
O1167     Mg1181   2.157       .  S
O1168     Mg1198   2.298       .  S
C1169      O1174   1.268       .  A
C1169      C1240   1.480       .  S
C1170      O1197   1.270       .  A
C1170      C1204   1.499       .  S
Mg1171     O1178   2.141       .  S
Mg1171     O1179   2.152       .  S
Mg1171     O1172   2.323       .  S
Mg1171     O1200   2.262       .  S
O1173      C1177   1.270       .  A
O1174     Mg1181   2.265       .  S
O1176      C1196   1.273       .  A
O1176     Mg1192   2.297       .  S
O1178     Mg1192   2.164       .  S
O1178      C1189   1.236       .  S
O1180     Mg1192   2.297       .  S
Mg1181     O1197   2.251       .  S
O1182     Mg1198   2.260       .  S
H1183      C1188   1.081       .  S
O1184      C1187   1.235       .  S
H1185      C1187   1.080       .  S
H1186      C1189   1.081       .  S
C1194      O1199   1.272       .  A
C1194      C1309   1.471       .  S
C1196      C1228   1.488       .  S
C1201      C1202   1.401       .  A
C1201      C1206   1.404       .  A
C1202      H1207   1.085       .  S
C1202      C1203   1.402       .  A
C1203      C1204   1.418       .  A
C1203      C1210   1.442       .  S
C1204      C1205   1.414       .  A
C1205      H1208   1.084       .  S
C1205      C1206   1.404       .  A
C1206      C1209   1.443       .  S
C1209      N1211   1.157       .  T
C1210      N1212   1.157       .  T
C1213      C1214   1.410       .  A
C1213      C1218   1.415       .  A
C1214      H1219   1.084       .  S
C1214      C1215   1.410       .  A
C1215      C1216   1.411       .  A
C1215      C1222   1.442       .  S
C1216      C1217   1.404       .  A
C1217      H1220   1.085       .  S
C1217      C1218   1.397       .  A
C1218      C1221   1.446       .  S
C1221      N1223   1.157       .  T
C1222      N1224   1.157       .  T
C1225      C1226   1.401   1_556  A
C1225      C1230   1.410       .  A
C1226      H1231   1.086       .  S
C1226      C1227   1.396       .  A
C1227      C1228   1.417   1_554  A
C1227      C1234   1.444       .  S
C1228      C1229   1.409       .  A
C1229      C1230   1.404       .  A
C1233      N1235   1.157       .  T
C1234      N1236   1.157       .  T
C1237      C1238   1.402       .  A
C1238      H1243   1.085       .  S
C1238      C1239   1.402       .  A
C1239      C1240   1.418       .  A
C1239      C1246   1.445       .  S
C1241      H1244   1.085       .  S
C1241      C1242   1.393       .  A
C1242      C1245   1.445       .  S
C1245      N1247   1.157       .  T
C1246      N1248   1.158       .  T
C1249      C1250   1.407       .  A
C1249      C1254   1.409       .  A
C1250      H1255   1.085       .  S
C1250      C1251   1.409       .  A
C1251      C1252   1.417       .  A
C1251      C1258   1.443       .  S
C1252      C1253   1.411       .  A
C1253      H1256   1.085       .  S
C1253      C1254   1.400       .  A
C1254      C1257   1.445       .  S
C1257      N1259   1.157       .  T
C1258      N1260   1.157       .  T
C1261      C1262   1.402       .  A
C1261      C1266   1.419       .  A
C1262      H1267   1.085       .  S
C1262      C1263   1.399       .  A
C1263      C1264   1.419       .  A
C1263      C1270   1.446       .  S
C1264      C1265   1.403       .  A
C1265      H1268   1.085       .  S
C1265      C1266   1.409       .  A
C1266      C1269   1.442       .  S
C1269      N1271   1.157       .  T
C1270      N1272   1.157       .  T
C1273      C1274   1.399       .  A
C1273      C1278   1.417       .  A
C1274      H1279   1.085       .  S
C1274      C1275   1.399       .  A
C1275      C1276   1.422       .  A
C1275      C1282   1.445       .  S
C1276      C1277   1.406       .  A
C1277      H1280   1.084       .  S
C1277      C1278   1.409       .  A
C1278      C1281   1.444       .  S
C1281      N1283   1.157       .  T
C1282      N1284   1.157       .  T
C1285      C1286   1.408       .  A
C1285      C1290   1.409       .  A
C1286      H1291   1.085       .  S
C1286      C1287   1.409       .  A
C1287      C1288   1.416       .  A
C1287      C1294   1.443       .  S
C1288      C1289   1.412       .  A
C1289      H1292   1.084       .  S
C1289      C1290   1.400       .  A
C1290      C1293   1.445       .  S
C1293      N1295   1.157       .  T
C1294      N1296   1.157       .  T
C1297      C1302   1.418       .  A
C1298      H1303   1.085       .  S
C1298      C1299   1.395       .  A
C1299      C1306   1.445       .  S
C1300      C1301   1.404       .  A
C1301      H1304   1.085       .  S
C1301      C1302   1.404       .  A
C1302      C1305   1.445       .  S
C1305      N1307   1.158       .  T
C1306      N1308   1.157       .  T
C1309      C1310   1.398       .  A
C1309      C1314   1.409       .  A
C1310      H1315   1.084       .  S
C1310      C1311   1.394       .  A
C1311      C1312   1.419       .  A
C1311      C1318   1.445       .  S
C1312      C1313   1.409       .  A
C1313      H1316   1.083       .  S
C1313      C1314   1.402       .  A
C1314      C1317   1.444       .  S
C1317      N1319   1.157       .  T
C1318      N1320   1.157       .  T
C1321      C2666   1.400       .  A
C1321      C1326   1.408       .  A
C1322      H1327   1.085       .  S
C1322      C2665   1.400   1_455  A
C1322      C1323   1.397       .  A
C1323      C2668   1.419   1_455  A
C1323      C1330   1.445       .  S
C1324      C2667   1.418       .  A
C1324      C1325   1.409       .  A
C1325      H1328   1.084       .  S
C1325      C1326   1.399       .  A
C1326      C1329   1.444       .  S
C1329      N1331   1.157       .  T
C1330      N1332   1.158       .  T
C1333      C1334   1.411       .  A
C1333      C1338   1.417   1_455  A
C1334      H1339   1.084       .  S
C1334      C1335   1.402       .  A
C1335      C1336   1.412       .  A
C1335      C1342   1.445       .  S
C1336      C1337   1.405   1_455  A
C1337      H2684   1.085       .  S
C1337      C1338   1.398       .  A
C1338      C2685   1.445       .  S
H1340      C2681   1.085       .  S
C1341      C2682   1.445       .  S
C1341      N1343   1.157       .  T
C1342      N1344   1.157       .  T
O1345     Mg1347   2.142       .  S
O1345     Mg2025   2.148   1_545  S
O1345      C1380   1.234       .  S
C1346      O1383   1.267   1_455  A
C1346      H1385   1.081       .  S
Mg1347     O1391   2.294       .  S
Mg1347     O1387   2.243       .  S
Mg1347     O1358   2.296       .  S
O1348     Mg1373   2.156       .  S
O1348      C2041   1.236       .  S
O1349      C2052   1.268       .  A
O1349     Mg1373   2.295       .  S
C1350      O1352   1.278       .  A
C1350      O1364   1.271       .  A
C1350      C1612   1.495       .  S
O1351     Mg1353   2.308       .  S
O1352     Mg1384   2.317       .  S
Mg1353     O2017   2.149       .  S
Mg1353     O1359   2.121       .  S
Mg1353     O1367   2.244       .  S
Mg1353     O1355   2.283       .  S
C1354      O1392   1.269       .  A
C1354      O2032   1.271   1_545  A
C1354      C1648   1.485       .  S
O1355      C1362   1.273       .  A
H1356      C1369   1.081       .  S
C1357      O1371   1.234       .  S
C1357      O2044   1.268       .  A
C1357      H1382   1.080       .  S
O1358      C1381   1.269       .  A
O1359     Mg1373   2.165       .  S
O1360      C2026   1.271       .  A
O1360     Mg1390   2.284       .  S
C1361      O1374   1.269       .  A
C1361      C1657   1.471       .  S
C1362      O1389   1.278       .  A
C1362      C1624   1.498       .  S
Mg1363     O1370   2.136       .  S
Mg1363     O2043   2.144   1_545  S
Mg1363     O1364   2.281       .  S
Mg1363     O1365   2.302       .  S
Mg1363     O1392   2.253       .  S
O1366     Mg1373   2.300       .  S
O1367      C1386   1.267       .  A
O1368     Mg1384   2.316       .  S
C1369      O2020   1.236   1_545  S
O1370     Mg1384   2.161       .  S
O1371     Mg2035   2.146       .  S
O1371     Mg1390   2.141       .  S
O1372      C2029   1.268   1_545  A
O1372     Mg1384   2.299       .  S
Mg1373     O1389   2.311       .  S
O1374     Mg1390   2.234       .  S
H1375      C1380   1.081       .  S
O1376     Mg1384   2.170       .  S
O1376      C2051   1.237   1_545  S
H1377      C1379   1.081       .  S
H1378      C1381   1.081       .  S
C1379      O2048   1.237       .  S
C1380      O2021   1.268   1_545  A
O1383     Mg1390   2.283       .  S
C1386      O2063   1.274       .  A
C1386      C1633   1.487       .  S
O1387      C1388   1.270       .  A
C1388      C1669   1.493       .  S
O1391      C2058   1.274   1_545  A
O1393     Mg1395   2.138       .  S
O1393      C1428   1.234       .  S
C1394      O1743   1.233       .  S
C1394      O1431   1.267       .  A
C1394      H1433   1.081       .  S
Mg1395     O1760   2.170       .  S
Mg1395     O1439   2.276       .  S
Mg1395     O1435   2.235       .  S
Mg1395     O1406   2.290       .  S
O1396     Mg1774   2.179   1_554  S
O1396     Mg1421   2.166       .  S
O1397     Mg1421   2.301       .  S
C1398      O1400   1.277       .  A
C1398      O1412   1.275       .  A
C1398      C1588   1.498       .  S
O1399      C1763   1.270   1_554  A
O1399     Mg1401   2.297       .  S
O1400     Mg1432   2.305       .  S
Mg1401     O1407   2.128       .  S
Mg1401     O1415   2.246       .  S
Mg1401     O1403   2.277       .  S
C1402      O1440   1.269       .  A
C1402      C1672   1.483       .  S
O1403      C1410   1.271       .  A
H1404      C1417   1.081       .  S
C1405      O1419   1.234       .  S
C1405      H1430   1.081       .  S
O1406      C1429   1.267       .  A
O1407     Mg1421   2.150       .  S
O1407      C1730   1.233       .  S
O1408     Mg1438   2.289       .  S
C1409      O1422   1.271       .  A
C1409      O1750   1.277       .  A
C1409      C1561   1.476       .  S
C1410      O1437   1.278       .  A
C1410      C1600   1.490       .  S
Mg1411     O1418   2.132       .  S
Mg1411     O1412   2.292       .  S
Mg1411     O1413   2.304       .  S
Mg1411     O1440   2.255       .  S
O1413      C1753   1.271       .  A
O1414      C1745   1.277   1_554  A
O1414     Mg1421   2.301       .  S
O1415      C1434   1.268       .  A
O1416      C1772   1.277       .  A
O1416     Mg1432   2.302       .  S
C1417      O1749   1.271   1_554  A
O1418     Mg1432   2.162       .  S
O1418      C1765   1.234       .  S
O1419     Mg1438   2.148       .  S
O1420     Mg1432   2.295       .  S
Mg1421     O1437   2.317       .  S
O1422     Mg1438   2.254       .  S
H1423      C1428   1.081       .  S
O1424     Mg1731   2.170       .  S
O1424     Mg1432   2.153       .  S
H1425      C1427   1.081       .  S
H1426      C1429   1.081   1_556  S
C1427      O1735   1.270       .  A
C1429      O1754   1.234   1_554  S
O1431     Mg1438   2.289       .  S
C1434      C1660   1.488       .  S
O1435      C1436   1.268       .  A
C1436      O1752   1.277   1_554  A
C1436      C1573   1.472       .  S
Mg1438     O1732   2.179       .  S
O1441     Mg1443   2.164       .  S
O1441     Mg1449   2.155       .  S
O1441      C1476   1.235       .  S
C1442      O1455   1.236       .  S
C1442      O1479   1.271       .  A
C1442      H1481   1.081       .  S
Mg1443     O1472   2.157       .  S
Mg1443     O1487   2.312       .  S
Mg1443     O1483   2.291       .  S
Mg1443     O1454   2.305       .  S
O1444     Mg1486   2.154       .  S
O1444     Mg1469   2.148       .  S
O1444      C1465   1.234       .  S
O1445      C1476   1.271       .  A
O1445     Mg1469   2.305       .  S
C1446      O1448   1.274       .  A
C1446      O1460   1.274       .  A
C1446      C1552   1.487       .  S
O1447      C1475   1.271       .  A
O1447     Mg1449   2.309       .  S
O1448     Mg1480   2.296       .  S
Mg1449     O1455   2.164       .  S
Mg1449     O1463   2.286       .  S
Mg1449     O1451   2.309       .  S
C1450      O1488   1.272       .  A
C1450      O1456   1.276       .  A
C1450      C1609   1.489       .  S
O1451      C1458   1.275       .  A
H1452      C1465   1.081       .  S
C1453      O1467   1.236       .  S
C1453      O1468   1.271       .  A
C1453      H1478   1.081       .  S
O1454      C1477   1.271       .  A
O1455     Mg1469   2.164       .  S
O1456     Mg1486   2.305       .  S
C1457      O1470   1.273       .  A
C1457      O1462   1.277       .  A
C1457      C1597   1.493       .  S
C1458      O1485   1.271       .  A
C1458      C1537   1.475       .  S
Mg1459     O1466   2.158       .  S
Mg1459     O1467   2.162       .  S
Mg1459     O1460   2.286       .  S
Mg1459     O1461   2.300       .  S
Mg1459     O1488   2.284       .  S
O1461      C1465   1.269       .  A
O1462     Mg1469   2.310       .  S
O1463      C1482   1.273       .  A
O1464      C1484   1.276       .  A
O1464     Mg1480   2.308       .  S
O1466     Mg1480   2.165       .  S
O1466      C1477   1.236       .  S
O1467     Mg1486   2.159       .  S
O1468     Mg1480   2.303       .  S
Mg1469     O1485   2.272       .  S
O1470     Mg1486   2.287       .  S
H1471      C1476   1.081       .  S
O1472     Mg1480   2.163       .  S
O1472      C1475   1.236       .  S
H1473      C1475   1.081       .  S
H1474      C1477   1.081       .  S
O1479     Mg1486   2.307       .  S
C1482      O1487   1.276       .  A
C1482      C1621   1.487       .  S
O1483      C1484   1.274       .  A
C1484      C1585   1.487       .  S
O1489     Mg2163   2.148       .  S
O1489     Mg1497   2.149       .  S
O1489      C1524   1.234       .  S
C1490      O1503   1.236       .  S
C1490      O1527   1.270       .  A
C1490      H1529   1.081       .  S
Mg1491     O2161   2.146   1_545  S
Mg1491     O1520   2.153       .  S
Mg1491     O1535   2.294       .  S
Mg1491     O1531   2.244       .  S
Mg1491     O1838   2.297   1_554  S
O1492     Mg1534   2.153       .  S
O1492     Mg1853   2.146       .  S
O1492      C1513   1.235       .  S
O1493      C1524   1.268       .  A
O1493     Mg1517   2.293       .  S
C1494      O1496   1.272       .  A
C1494      O1508   1.279       .  A
C1494      C1549   1.489       .  S
O1495      C1523   1.271       .  A
O1495     Mg2169   2.310   1_545  S
O1496     Mg1528   2.265       .  S
Mg1497     O1503   2.128       .  S
Mg1497     O2167   2.310       .  S
Mg1497     O1511   2.250       .  S
Mg1497     O1499   2.328       .  S
C1498      O2208   1.273       .  A
C1498      O1504   1.273       .  A
C1498      C1636   1.474       .  S
O1499      C1506   1.278       .  A
H1500      C1513   1.081       .  S
C1501      O1515   1.233       .  S
C1501      O1516   1.268       .  A
C1501      H1526   1.081       .  S
O1502      C1525   1.270       .  A
O1502     Mg1827   2.298       .  S
O1503     Mg1517   2.157       .  S
O1504     Mg1534   2.298       .  S
C1505      O1854   1.272   1_554  A
C1505      O1510   1.269       .  A
C1505      C1576   1.481       .  S
C1506      O1533   1.271       .  A
C1506      C1540   1.499       .  S
Mg1507     O1514   2.142       .  S
Mg1507     O1515   2.150       .  S
Mg1507     O1508   2.323       .  S
Mg1507     O2181   2.303   1_545  S
Mg1507     O1536   2.265       .  S
O1509      C1513   1.270       .  A
O1509     Mg2179   2.303       .  S
O1510     Mg1517   2.267       .  S
O1511      C2202   1.271       .  A
O1512      C1532   1.273       .  A
O1512     Mg1528   2.298       .  S
O1514     Mg1528   2.165       .  S
O1514      C1525   1.236       .  S
O1515     Mg2206   2.149   1_545  S
O1516     Mg1528   2.296       .  S
Mg1517     O1828   2.145   1_554  S
Mg1517     O1533   2.254       .  S
O1518      C1841   1.272       .  A
O1518     Mg1534   2.265       .  S
H1519      C1524   1.081       .  S
O1520     Mg1864   2.156   1_554  S
O1520      C1523   1.235       .  S
H1521      C1523   1.080       .  S
H1522      C1525   1.081       .  S
O1527     Mg1870   2.294   1_554  S
Mg1528     O1856   2.156       .  S
C1530      O2183   1.272   1_545  A
C1530      O1535   1.272       .  A
C1530      C1645   1.472       .  S
O1531      C1868   1.268   1_554  A
C1532      O1867   1.269       .  A
C1532      C1564   1.488       .  S
Mg1534     O2187   2.153       .  S
Mg1534     O1863   2.295       .  S
O1536      C2170   1.273   1_545  A
C1537      C1538   1.400       .  A
C1537      C1542   1.404       .  A
C1538      H1543   1.085       .  S
C1538      C1539   1.402       .  A
C1539      C1540   1.419       .  A
C1539      C1546   1.443       .  S
C1540      C1541   1.414       .  A
C1541      H1544   1.084       .  S
C1541      C1542   1.404       .  A
C1542      C1545   1.443       .  S
C1545      N1547   1.157       .  T
C1546      N1548   1.157       .  T
C1549      C1550   1.410       .  A
C1549      C1554   1.415       .  A
C1550      H1555   1.084       .  S
C1550      C1551   1.410       .  A
C1551      C1552   1.412       .  A
C1551      C1558   1.443       .  S
C1552      C1553   1.404       .  A
C1553      H1556   1.085       .  S
C1553      C1554   1.397       .  A
C1554      C1557   1.446       .  S
C1557      N1559   1.157       .  T
C1558      N1560   1.157       .  T
C1561      C1562   1.400       .  A
C1561      C1566   1.409       .  A
C1562      H1567   1.086       .  S
C1562      C1563   1.395       .  A
C1563      C1564   1.418       .  A
C1563      C1570   1.444       .  S
C1564      C1565   1.409       .  A
C1565      H1904   1.084       .  S
C1565      C1566   1.404       .  A
C1566      C1905   1.443       .  S
H1568      C1901   1.084       .  S
C1569      C1902   1.443       .  S
C1569      N1571   1.157       .  T
C1570      N1572   1.157       .  T
C1573      C1574   1.402       .  A
C1573      C1914   1.411   1_554  A
C1574      H1579   1.085       .  S
C1574      C1575   1.402       .  A
C1575      C1576   1.418       .  A
C1575      C1582   1.445       .  S
C1576      C1913   1.403   1_554  A
C1577      H1580   1.085       .  S
C1577      C1912   1.403       .  A
C1577      C1578   1.394       .  A
C1578      C1909   1.412       .  A
C1578      C1581   1.445       .  S
C1581      N1583   1.157       .  T
C1582      N1584   1.158       .  T
C1585      C1586   1.407       .  A
C1585      C1590   1.410       .  A
C1586      H1591   1.085       .  S
C1586      C1587   1.409       .  A
C1587      C1588   1.416       .  A
C1587      C1594   1.443       .  S
C1588      C1589   1.411       .  A
C1589      H1592   1.085       .  S
C1589      C1590   1.400       .  A
C1590      C1593   1.445       .  S
C1593      N1595   1.157       .  T
C1594      N1596   1.157       .  T
C1597      C1598   1.402       .  A
C1597      C1602   1.419       .  A
C1598      H1603   1.085       .  S
C1598      C1599   1.399       .  A
C1599      C1600   1.419       .  A
C1599      C1606   1.446       .  S
C1600      C1601   1.403       .  A
C1601      H1604   1.085       .  S
C1601      C1602   1.409       .  A
C1602      C1605   1.442       .  S
C1605      N1607   1.157       .  T
C1606      N1608   1.157       .  T
C1609      C1610   1.400       .  A
C1609      C1614   1.417       .  A
C1610      H1615   1.085       .  S
C1610      C1611   1.399       .  A
C1611      C1612   1.422       .  A
C1611      C1618   1.445       .  S
C1612      C1613   1.406       .  A
C1613      H1616   1.084       .  S
C1613      C1614   1.409       .  A
C1614      C1617   1.444       .  S
C1617      N1619   1.157       .  T
C1618      N1620   1.157       .  T
C1621      C1622   1.408       .  A
C1621      C1626   1.409       .  A
C1622      H1627   1.085       .  S
C1622      C1623   1.409       .  A
C1623      C1624   1.416       .  A
C1623      C1630   1.443       .  S
C1624      C1625   1.412       .  A
C1625      H1628   1.084       .  S
C1625      C1626   1.400       .  A
C1626      C1629   1.445       .  S
C1629      N1631   1.157       .  T
C1630      N1632   1.157       .  T
C1633      C2306   1.407       .  A
C1633      C1638   1.418       .  A
C1634      H1639   1.085       .  S
C1634      C2305   1.406   1_545  A
C1634      C1635   1.395       .  A
C1635      C2308   1.409   1_545  A
C1635      C1642   1.445       .  S
C1636      C2307   1.409       .  A
C1636      C1637   1.403       .  A
C1637      H1640   1.085       .  S
C1637      C1638   1.404       .  A
C1638      C1641   1.445       .  S
C1641      N1643   1.158       .  T
C1642      N1644   1.157       .  T
C1645      C1646   1.398   1_545  A
C1645      C1650   1.409       .  A
C1646      H1651   1.084       .  S
C1646      C1647   1.394       .  A
C1647      C1648   1.419   1_565  A
C1647      C1654   1.445       .  S
C1648      C1649   1.408       .  A
C1649      H1652   1.084       .  S
C1649      C1650   1.402       .  A
C1650      C1653   1.444       .  S
C1653      N1655   1.157       .  T
C1654      N1656   1.157       .  T
C1657      C1662   1.409       .  A
C1658      H1663   1.085       .  S
C1658      C1659   1.397       .  A
C1659      C1666   1.445       .  S
C1660      C1661   1.410       .  A
C1661      H1664   1.084       .  S
C1661      C1662   1.399       .  A
C1662      C1665   1.444       .  S
C1665      N1667   1.157       .  T
C1666      N1668   1.158       .  T
C1669      C1670   1.411       .  A
C1669      C1674   1.417       .  A
C1670      H1675   1.084       .  S
C1670      C1671   1.402       .  A
C1671      C1672   1.411       .  A
C1671      C1678   1.445       .  S
C1672      C1673   1.405       .  A
C1673      C1674   1.398       .  A
C1677      N1679   1.157       .  T
C1678      N1680   1.157       .  T
O1681     Mg1683   2.141       .  S
O1681     Mg2361   2.148   1_545  S
O1681      C1716   1.234       .  S
C1682      O1719   1.267   1_455  A
C1682      H1721   1.081       .  S
Mg1683     O1727   2.294       .  S
Mg1683     O1723   2.242       .  S
Mg1683     O1694   2.296       .  S
O1684     Mg1709   2.155       .  S
O1684      C2377   1.236       .  S
O1685      C2388   1.268       .  A
O1685     Mg1709   2.295       .  S
C1686      O1688   1.278       .  A
C1686      O1700   1.271       .  A
C1686      C1948   1.495       .  S
O1687     Mg1689   2.309       .  S
O1688     Mg1720   2.316       .  S
Mg1689     O2353   2.149       .  S
Mg1689     O1695   2.120       .  S
Mg1689     O1703   2.243       .  S
Mg1689     O1691   2.282       .  S
C1690      O1728   1.269       .  A
C1690      O2368   1.271   1_545  A
C1690      C1984   1.486       .  S
O1691      C1698   1.273       .  A
H1692      C1705   1.081       .  S
C1693      O1707   1.234       .  S
C1693      O2380   1.268       .  A
C1693      H1718   1.080       .  S
O1694      C1717   1.269       .  A
O1695     Mg1709   2.165       .  S
O1696      C2362   1.271       .  A
O1696     Mg1726   2.283       .  S
C1697      O1710   1.268       .  A
C1697      C1993   1.471       .  S
C1698      O1725   1.277       .  A
C1698      C1960   1.498       .  S
Mg1699     O1706   2.135       .  S
Mg1699     O2379   2.145   1_545  S
Mg1699     O1700   2.281       .  S
Mg1699     O1701   2.302       .  S
Mg1699     O1728   2.251       .  S
O1702     Mg1709   2.300       .  S
O1703      C1722   1.267       .  A
O1704     Mg1720   2.314       .  S
C1705      O2356   1.236   1_545  S
O1706     Mg1720   2.161       .  S
O1707     Mg2371   2.145       .  S
O1707     Mg1726   2.141       .  S
O1708      C2365   1.268   1_545  A
O1708     Mg1720   2.300       .  S
Mg1709     O1725   2.310       .  S
O1710     Mg1726   2.234       .  S
H1711      C1716   1.081       .  S
O1712     Mg1720   2.169       .  S
O1712      C2387   1.237   1_545  S
H1713      C1715   1.081       .  S
H1714      C1717   1.081       .  S
C1715      O2384   1.237       .  S
C1716      O2357   1.268   1_545  A
O1719     Mg1726   2.283       .  S
C1722      O2399   1.274       .  A
C1722      C1969   1.487       .  S
O1723      C1724   1.270       .  A
C1724      C2005   1.492       .  S
O1727      C2394   1.274   1_545  A
O1729     Mg1731   2.138       .  S
O1729      C1764   1.234       .  S
C1730      O1767   1.267   1_554  A
C1730      H1769   1.081       .  S
Mg1731     O1775   2.277       .  S
Mg1731     O1771   2.235       .  S
Mg1731     O1742   2.290       .  S
O1732     Mg1757   2.166       .  S
O1733     Mg1757   2.300       .  S
C1734      O1736   1.277       .  A
C1734      O1748   1.274       .  A
C1734      C1924   1.498       .  S
O1735     Mg1737   2.296       .  S
O1736     Mg1768   2.305       .  S
Mg1737     O1743   2.128       .  S
Mg1737     O1751   2.245       .  S
Mg1737     O1739   2.276       .  S
C1738      O1776   1.269       .  A
C1738      C2008   1.483       .  S
O1739      C1746   1.271       .  A
H1740      C1753   1.081       .  S
C1741      O1755   1.234       .  S
C1741      H1766   1.081       .  S
O1742      C1765   1.267       .  A
O1743     Mg1757   2.151       .  S
O1744     Mg1774   2.290       .  S
C1745      O1758   1.271       .  A
C1745      C1897   1.474       .  S
C1746      O1773   1.278       .  A
C1746      C1936   1.490       .  S
Mg1747     O1754   2.130       .  S
Mg1747     O1748   2.290       .  S
Mg1747     O1749   2.304       .  S
Mg1747     O1776   2.252       .  S
O1750     Mg1757   2.301       .  S
O1751      C1770   1.268       .  A
O1752     Mg1768   2.301       .  S
O1754     Mg1768   2.162       .  S
O1755     Mg1774   2.147       .  S
O1756     Mg1768   2.295       .  S
Mg1757     O1773   2.317       .  S
O1758     Mg1774   2.252       .  S
H1759      C1764   1.081       .  S
O1760     Mg1768   2.153   1_554  S
H1761      C1763   1.081       .  S
H1762      C1765   1.081       .  S
O1767     Mg1774   2.289       .  S
C1770      C1996   1.487       .  S
O1771      C1772   1.268       .  A
C1772      C1909   1.472       .  S
O1777     Mg1779   2.164       .  S
O1777     Mg1785   2.155       .  S
O1777      C1812   1.235       .  S
C1778      O1791   1.236       .  S
C1778      O1815   1.271       .  A
C1778      H1817   1.081       .  S
Mg1779     O1808   2.156       .  S
Mg1779     O1823   2.313       .  S
Mg1779     O1819   2.291       .  S
Mg1779     O1790   2.305       .  S
O1780     Mg1822   2.154       .  S
O1780     Mg1805   2.148       .  S
O1780      C1801   1.234       .  S
O1781      C1812   1.271       .  A
O1781     Mg1805   2.305       .  S
C1782      O1784   1.274       .  A
C1782      O1796   1.274       .  A
C1782      C1888   1.487       .  S
O1783      C1811   1.271       .  A
O1783     Mg1785   2.309       .  S
O1784     Mg1816   2.296       .  S
Mg1785     O1791   2.164       .  S
Mg1785     O1799   2.285       .  S
Mg1785     O1787   2.309       .  S
C1786      O1824   1.272       .  A
C1786      O1792   1.276       .  A
C1786      C1945   1.489       .  S
O1787      C1794   1.275       .  A
H1788      C1801   1.081       .  S
C1789      O1803   1.236       .  S
C1789      O1804   1.271       .  A
C1789      H1814   1.081       .  S
O1790      C1813   1.271       .  A
O1791     Mg1805   2.163       .  S
O1792     Mg1822   2.304       .  S
C1793      O1806   1.273       .  A
C1793      O1798   1.277       .  A
C1793      C1933   1.494       .  S
C1794      O1821   1.271       .  A
C1794      C1873   1.475       .  S
Mg1795     O1802   2.158       .  S
Mg1795     O1803   2.162       .  S
Mg1795     O1796   2.287       .  S
Mg1795     O1797   2.300       .  S
Mg1795     O1824   2.284       .  S
O1797      C1801   1.269       .  A
O1798     Mg1805   2.309       .  S
O1799      C1818   1.273       .  A
O1800      C1820   1.276       .  A
O1800     Mg1816   2.308       .  S
O1802     Mg1816   2.165       .  S
O1802      C1813   1.236       .  S
O1803     Mg1822   2.159       .  S
O1804     Mg1816   2.302       .  S
Mg1805     O1821   2.272       .  S
O1806     Mg1822   2.287       .  S
H1807      C1812   1.081       .  S
O1808     Mg1816   2.163       .  S
O1808      C1811   1.236       .  S
H1809      C1811   1.081       .  S
H1810      C1813   1.081       .  S
O1815     Mg1822   2.306       .  S
C1818      O1823   1.276       .  A
C1818      C1957   1.487       .  S
O1819      C1820   1.274       .  A
C1820      C1921   1.487       .  S
O1825     Mg2499   2.148       .  S
O1825     Mg1833   2.150       .  S
O1825      C1860   1.234       .  S
C1826      O1839   1.236       .  S
C1826      O1863   1.270       .  A
C1826      H1865   1.081       .  S
Mg1827     O2497   2.147   1_545  S
Mg1827     O1856   2.152       .  S
Mg1827     O1871   2.295       .  S
Mg1827     O1867   2.246       .  S
O1828     Mg1870   2.153       .  S
O1828      C1849   1.235       .  S
O1829      C1860   1.268       .  A
O1829     Mg1853   2.292       .  S
C1830      O1832   1.272       .  A
C1830      O1844   1.279       .  A
C1830      C1885   1.489       .  S
O1831      C1859   1.271       .  A
O1831     Mg2505   2.310   1_545  S
O1832     Mg1864   2.266       .  S
Mg1833     O1839   2.128       .  S
Mg1833     O2503   2.309       .  S
Mg1833     O1847   2.252       .  S
Mg1833     O1835   2.328       .  S
C1834      O2544   1.273       .  A
C1834      O1840   1.273       .  A
C1834      C1972   1.474       .  S
O1835      C1842   1.278       .  A
H1836      C1849   1.081       .  S
C1837      O1851   1.233       .  S
C1837      O1852   1.268       .  A
C1837      H1862   1.081       .  S
O1838      C1861   1.270       .  A
O1839     Mg1853   2.157       .  S
O1840     Mg1870   2.297       .  S
C1841      O1846   1.269       .  A
C1841      C1912   1.482       .  S
C1842      O1869   1.271       .  A
C1842      C1876   1.499       .  S
Mg1843     O1850   2.141       .  S
Mg1843     O1851   2.150       .  S
Mg1843     O1844   2.322       .  S
Mg1843     O2517   2.303   1_545  S
Mg1843     O1872   2.264       .  S
O1845      C1849   1.270       .  A
O1845     Mg2515   2.303       .  S
O1846     Mg1853   2.267       .  S
O1847      C2538   1.271       .  A
O1848      C1868   1.273       .  A
O1848     Mg1864   2.297       .  S
O1850     Mg1864   2.164       .  S
O1850      C1861   1.236       .  S
O1851     Mg2542   2.150   1_545  S
O1852     Mg1864   2.296       .  S
Mg1853     O1869   2.255       .  S
O1854     Mg1870   2.265       .  S
H1855      C1860   1.081       .  S
O1856      C1859   1.235       .  S
H1857      C1859   1.080       .  S
H1858      C1861   1.081       .  S
C1866      O2519   1.271   1_545  A
C1866      O1871   1.272       .  A
C1866      C1981   1.472       .  S
C1868      C1900   1.488       .  S
Mg1870     O2523   2.152       .  S
O1872      C2506   1.273   1_545  A
C1873      C1874   1.400       .  A
C1873      C1878   1.404       .  A
C1874      H1879   1.085       .  S
C1874      C1875   1.402       .  A
C1875      C1876   1.419       .  A
C1875      C1882   1.443       .  S
C1876      C1877   1.414       .  A
C1877      H1880   1.084       .  S
C1877      C1878   1.404       .  A
C1878      C1881   1.443       .  S
C1881      N1883   1.157       .  T
C1882      N1884   1.157       .  T
C1885      C1886   1.410       .  A
C1885      C1890   1.414       .  A
C1886      H1891   1.084       .  S
C1886      C1887   1.410       .  A
C1887      C1888   1.412       .  A
C1887      C1894   1.443       .  S
C1888      C1889   1.404       .  A
C1889      H1892   1.085       .  S
C1889      C1890   1.397       .  A
C1890      C1893   1.446       .  S
C1893      N1895   1.157       .  T
C1894      N1896   1.157       .  T
C1897      C1898   1.400   1_556  A
C1897      C1902   1.409       .  A
C1898      H1903   1.086       .  S
C1898      C1899   1.396       .  A
C1899      C1900   1.418   1_554  A
C1899      C1906   1.445       .  S
C1900      C1901   1.410       .  A
C1901      C1902   1.404       .  A
C1905      N1907   1.157       .  T
C1906      N1908   1.157       .  T
C1909      C1910   1.402       .  A
C1910      H1915   1.085       .  S
C1910      C1911   1.402       .  A
C1911      C1912   1.418       .  A
C1911      C1918   1.445       .  S
C1913      H1916   1.085       .  S
C1913      C1914   1.394       .  A
C1914      C1917   1.446       .  S
C1917      N1919   1.157       .  T
C1918      N1920   1.158       .  T
C1921      C1922   1.407       .  A
C1921      C1926   1.410       .  A
C1922      H1927   1.085       .  S
C1922      C1923   1.409       .  A
C1923      C1924   1.416       .  A
C1923      C1930   1.443       .  S
C1924      C1925   1.411       .  A
C1925      H1928   1.085       .  S
C1925      C1926   1.400       .  A
C1926      C1929   1.445       .  S
C1929      N1931   1.157       .  T
C1930      N1932   1.157       .  T
C1933      C1934   1.402       .  A
C1933      C1938   1.419       .  A
C1934      H1939   1.085       .  S
C1934      C1935   1.399       .  A
C1935      C1936   1.419       .  A
C1935      C1942   1.446       .  S
C1936      C1937   1.403       .  A
C1937      H1940   1.085       .  S
C1937      C1938   1.409       .  A
C1938      C1941   1.442       .  S
C1941      N1943   1.157       .  T
C1942      N1944   1.157       .  T
C1945      C1946   1.400       .  A
C1945      C1950   1.417       .  A
C1946      H1951   1.085       .  S
C1946      C1947   1.399       .  A
C1947      C1948   1.421       .  A
C1947      C1954   1.445       .  S
C1948      C1949   1.406       .  A
C1949      H1952   1.084       .  S
C1949      C1950   1.409       .  A
C1950      C1953   1.444       .  S
C1953      N1955   1.157       .  T
C1954      N1956   1.157       .  T
C1957      C1958   1.408       .  A
C1957      C1962   1.409       .  A
C1958      H1963   1.085       .  S
C1958      C1959   1.409       .  A
C1959      C1960   1.416       .  A
C1959      C1966   1.443       .  S
C1960      C1961   1.412       .  A
C1961      H1964   1.084       .  S
C1961      C1962   1.400       .  A
C1962      C1965   1.445       .  S
C1965      N1967   1.157       .  T
C1966      N1968   1.157       .  T
C1969      C2642   1.407       .  A
C1969      C1974   1.418       .  A
C1970      H1975   1.085       .  S
C1970      C2641   1.406   1_545  A
C1970      C1971   1.395       .  A
C1971      C2644   1.409   1_545  A
C1971      C1978   1.445       .  S
C1972      C2643   1.409       .  A
C1972      C1973   1.403       .  A
C1973      H1976   1.085       .  S
C1973      C1974   1.404       .  A
C1974      C1977   1.445       .  S
C1977      N1979   1.158       .  T
C1978      N1980   1.157       .  T
C1981      C1982   1.398   1_545  A
C1981      C1986   1.409       .  A
C1982      H1987   1.084       .  S
C1982      C1983   1.395       .  A
C1983      C1984   1.419   1_565  A
C1983      C1990   1.445       .  S
C1984      C1985   1.409       .  A
C1985      H1988   1.083       .  S
C1985      C1986   1.402       .  A
C1986      C1989   1.444       .  S
C1989      N1991   1.157       .  T
C1990      N1992   1.157       .  T
C1993      C1998   1.408       .  A
C1994      H1999   1.085       .  S
C1994      C1995   1.397       .  A
C1995      C2002   1.445       .  S
C1996      C1997   1.410       .  A
C1997      H2000   1.084       .  S
C1997      C1998   1.399       .  A
C1998      C2001   1.444       .  S
C2001      N2003   1.157       .  T
C2002      N2004   1.158       .  T
C2005      C2006   1.411       .  A
C2005      C2010   1.417       .  A
C2006      H2011   1.084       .  S
C2006      C2007   1.402       .  A
C2007      C2008   1.411       .  A
C2007      C2014   1.445       .  S
C2008      C2009   1.405       .  A
C2009      C2010   1.398       .  A
C2013      N2015   1.157       .  T
C2014      N2016   1.157       .  T
O2017     Mg2019   2.142       .  S
O2017      C2052   1.234       .  S
C2018      O2055   1.267   1_455  A
C2018      H2057   1.081       .  S
Mg2019     O2063   2.293       .  S
Mg2019     O2059   2.243       .  S
Mg2019     O2030   2.296       .  S
O2020     Mg2045   2.157       .  S
O2021     Mg2045   2.295       .  S
C2022      O2024   1.278       .  A
C2022      O2036   1.272       .  A
C2022      C2284   1.494       .  S
O2023     Mg2025   2.310       .  S
O2024     Mg2056   2.314       .  S
Mg2025     O2031   2.121       .  S
Mg2025     O2039   2.246       .  S
Mg2025     O2027   2.286       .  S
C2026      O2064   1.269       .  A
C2026      C2320   1.486       .  S
O2027      C2034   1.274       .  A
H2028      C2041   1.081       .  S
C2029      O2043   1.234       .  S
C2029      H2054   1.080       .  S
O2030      C2053   1.268       .  A
O2031     Mg2045   2.166       .  S
O2032     Mg2062   2.284       .  S
C2033      O2046   1.268       .  A
C2033      C2329   1.470       .  S
C2034      O2061   1.278       .  A
C2034      C2296   1.499       .  S
Mg2035     O2042   2.135       .  S
Mg2035     O2036   2.282       .  S
Mg2035     O2037   2.301       .  S
Mg2035     O2064   2.250       .  S
O2038     Mg2045   2.301       .  S
O2039      C2058   1.267       .  A
O2040     Mg2056   2.315       .  S
O2042     Mg2056   2.159       .  S
O2043     Mg2062   2.140       .  S
O2044     Mg2056   2.300       .  S
Mg2045     O2061   2.312       .  S
O2046     Mg2062   2.232       .  S
H2047      C2052   1.081       .  S
O2048     Mg2056   2.167       .  S
H2049      C2051   1.081       .  S
H2050      C2053   1.081       .  S
O2055     Mg2062   2.283       .  S
C2058      C2305   1.487       .  S
O2059      C2060   1.270       .  A
C2060      C2341   1.492       .  S
O2065     Mg2067   2.135       .  S
O2065      C2100   1.234       .  S
C2066      O2415   1.233       .  S
C2066      O2103   1.267       .  A
C2066      H2105   1.081       .  S
Mg2067     O2432   2.169       .  S
Mg2067     O2111   2.275       .  S
Mg2067     O2107   2.231       .  S
Mg2067     O2078   2.291       .  S
O2068     Mg2446   2.179   1_554  S
O2068     Mg2093   2.166       .  S
O2069     Mg2093   2.300       .  S
C2070      O2072   1.276       .  A
C2070      O2084   1.274       .  A
C2070      C2260   1.498       .  S
O2071      C2435   1.270   1_554  A
O2071     Mg2073   2.295       .  S
O2072     Mg2104   2.304       .  S
Mg2073     O2079   2.127       .  S
Mg2073     O2087   2.246       .  S
Mg2073     O2075   2.274       .  S
C2074      O2112   1.269       .  A
C2074      C2344   1.484       .  S
O2075      C2082   1.271       .  A
H2076      C2089   1.081       .  S
C2077      O2091   1.234       .  S
C2077      H2102   1.081       .  S
O2078      C2101   1.268       .  A
O2079     Mg2093   2.149       .  S
O2079      C2402   1.233       .  S
O2080     Mg2110   2.291       .  S
C2081      O2094   1.271       .  A
C2081      O2422   1.277       .  A
C2081      C2233   1.476       .  S
C2082      O2109   1.278       .  A
C2082      C2272   1.490       .  S
Mg2083     O2090   2.131       .  S
Mg2083     O2084   2.291       .  S
Mg2083     O2085   2.304       .  S
Mg2083     O2112   2.253       .  S
O2085      C2425   1.271       .  A
O2086      C2417   1.277   1_554  A
O2086     Mg2093   2.300       .  S
O2087      C2106   1.268       .  A
O2088      C2444   1.276       .  A
O2088     Mg2104   2.299       .  S
C2089      O2421   1.271   1_554  A
O2090     Mg2104   2.160       .  S
O2090      C2437   1.234       .  S
O2091     Mg2110   2.148       .  S
O2092     Mg2104   2.296       .  S
Mg2093     O2109   2.317       .  S
O2094     Mg2110   2.254       .  S
H2095      C2100   1.081       .  S
O2096     Mg2403   2.169       .  S
O2096     Mg2104   2.152       .  S
H2097      C2099   1.081       .  S
H2098      C2101   1.081   1_556  S
C2099      O2407   1.270       .  A
C2101      O2426   1.234   1_554  S
O2103     Mg2110   2.289       .  S
C2106      C2332   1.487       .  S
O2107      C2108   1.268       .  A
C2108      O2424   1.276   1_554  A
C2108      C2245   1.471       .  S
Mg2110     O2404   2.179       .  S
O2113     Mg2115   2.164       .  S
O2113     Mg2121   2.153       .  S
O2113      C2148   1.236       .  S
C2114      O2127   1.236       .  S
C2114      O2151   1.271       .  A
C2114      H2153   1.081       .  S
Mg2115     O2144   2.157       .  S
Mg2115     O2159   2.314       .  S
Mg2115     O2155   2.290       .  S
Mg2115     O2126   2.305       .  S
O2116     Mg2158   2.155       .  S
O2116     Mg2141   2.147       .  S
O2116      C2137   1.234       .  S
O2117      C2148   1.271       .  A
O2117     Mg2141   2.307       .  S
C2118      O2120   1.274       .  A
C2118      O2132   1.273       .  A
C2118      C2224   1.486       .  S
O2119      C2147   1.271       .  A
O2119     Mg2121   2.310       .  S
O2120     Mg2152   2.298       .  S
Mg2121     O2127   2.164       .  S
Mg2121     O2135   2.285       .  S
Mg2121     O2123   2.309       .  S
C2122      O2160   1.272       .  A
C2122      O2128   1.276       .  A
C2122      C2281   1.488       .  S
O2123      C2130   1.274       .  A
H2124      C2137   1.081       .  S
C2125      O2139   1.236       .  S
C2125      O2140   1.270       .  A
C2125      H2150   1.081       .  S
O2126      C2149   1.271       .  A
O2127     Mg2141   2.160       .  S
O2128     Mg2158   2.303       .  S
C2129      O2142   1.273       .  A
C2129      O2134   1.277       .  A
C2129      C2269   1.492       .  S
C2130      O2157   1.271       .  A
C2130      C2209   1.474       .  S
Mg2131     O2138   2.158       .  S
Mg2131     O2139   2.162       .  S
Mg2131     O2132   2.284       .  S
Mg2131     O2133   2.299       .  S
Mg2131     O2160   2.283       .  S
O2133      C2137   1.269       .  A
O2134     Mg2141   2.310       .  S
O2135      C2154   1.273       .  A
O2136      C2156   1.276       .  A
O2136     Mg2152   2.309       .  S
O2138     Mg2152   2.165       .  S
O2138      C2149   1.235       .  S
O2139     Mg2158   2.157       .  S
O2140     Mg2152   2.302       .  S
Mg2141     O2157   2.272       .  S
O2142     Mg2158   2.284       .  S
H2143      C2148   1.081       .  S
O2144     Mg2152   2.165       .  S
O2144      C2147   1.236       .  S
H2145      C2147   1.081       .  S
H2146      C2149   1.081       .  S
O2151     Mg2158   2.307       .  S
C2154      O2159   1.276       .  A
C2154      C2293   1.487       .  S
O2155      C2156   1.274       .  A
C2156      C2257   1.487       .  S
O2161     Mg2169   2.150       .  S
O2161      C2196   1.234       .  S
C2162      O2175   1.236       .  S
C2162      O2199   1.270       .  A
C2162      H2201   1.081       .  S
Mg2163     O2192   2.151       .  S
Mg2163     O2207   2.293       .  S
Mg2163     O2203   2.248       .  S
Mg2163     O2510   2.297   1_554  S
O2164     Mg2206   2.152       .  S
O2164     Mg2525   2.144       .  S
O2164      C2185   1.235       .  S
O2165      C2196   1.267       .  A
O2165     Mg2189   2.291       .  S
C2166      O2168   1.271       .  A
C2166      O2180   1.279       .  A
C2166      C2221   1.490       .  S
O2167      C2195   1.271       .  A
O2168     Mg2200   2.265       .  S
Mg2169     O2175   2.128       .  S
Mg2169     O2183   2.253       .  S
Mg2169     O2171   2.332       .  S
C2170      O2176   1.273       .  A
C2170      C2308   1.475       .  S
O2171      C2178   1.278       .  A
H2172      C2185   1.081       .  S
C2173      O2187   1.233       .  S
C2173      O2188   1.268       .  A
C2173      H2198   1.081       .  S
O2174      C2197   1.270       .  A
O2174     Mg2499   2.297       .  S
O2175     Mg2189   2.157       .  S
O2176     Mg2206   2.297       .  S
C2177      O2526   1.272   1_554  A
C2177      O2182   1.268       .  A
C2177      C2248   1.479       .  S
C2178      O2205   1.270       .  A
C2178      C2212   1.499       .  S
Mg2179     O2186   2.141       .  S
Mg2179     O2187   2.152       .  S
Mg2179     O2180   2.323       .  S
Mg2179     O2208   2.262       .  S
O2181      C2185   1.270       .  A
O2182     Mg2189   2.265       .  S
O2184      C2204   1.273       .  A
O2184     Mg2200   2.296       .  S
O2186     Mg2200   2.164       .  S
O2186      C2197   1.236       .  S
O2188     Mg2200   2.297       .  S
Mg2189     O2500   2.145   1_554  S
Mg2189     O2205   2.250       .  S
O2190      C2513   1.272       .  A
O2190     Mg2206   2.260       .  S
H2191      C2196   1.081       .  S
O2192     Mg2536   2.155   1_554  S
O2192      C2195   1.236       .  S
H2193      C2195   1.080       .  S
H2194      C2197   1.081       .  S
O2199     Mg2542   2.295   1_554  S
Mg2200     O2528   2.154       .  S
C2202      O2207   1.272       .  A
C2202      C2317   1.470       .  S
O2203      C2540   1.269   1_554  A
C2204      O2539   1.269       .  A
C2204      C2236   1.488       .  S
Mg2206     O2535   2.294       .  S
C2209      C2210   1.401       .  A
C2209      C2214   1.404       .  A
C2210      H2215   1.085       .  S
C2210      C2211   1.402       .  A
C2211      C2212   1.418       .  A
C2211      C2218   1.442       .  S
C2212      C2213   1.414       .  A
C2213      H2216   1.084       .  S
C2213      C2214   1.404       .  A
C2214      C2217   1.443       .  S
C2217      N2219   1.157       .  T
C2218      N2220   1.157       .  T
C2221      C2222   1.410       .  A
C2221      C2226   1.415       .  A
C2222      H2227   1.084       .  S
C2222      C2223   1.410       .  A
C2223      C2224   1.411       .  A
C2223      C2230   1.442       .  S
C2224      C2225   1.404       .  A
C2225      H2228   1.085       .  S
C2225      C2226   1.397       .  A
C2226      C2229   1.446       .  S
C2229      N2231   1.157       .  T
C2230      N2232   1.157       .  T
C2233      C2234   1.401       .  A
C2233      C2238   1.409       .  A
C2234      H2239   1.086       .  S
C2234      C2235   1.396       .  A
C2235      C2236   1.418       .  A
C2235      C2242   1.444       .  S
C2236      C2237   1.410       .  A
C2237      H2576   1.084       .  S
C2237      C2238   1.404       .  A
C2238      C2577   1.443       .  S
H2240      C2573   1.084       .  S
C2241      C2574   1.443       .  S
C2241      N2243   1.157       .  T
C2242      N2244   1.157       .  T
C2245      C2246   1.402       .  A
C2245      C2586   1.411   1_554  A
C2246      H2251   1.085       .  S
C2246      C2247   1.402       .  A
C2247      C2248   1.418       .  A
C2247      C2254   1.445       .  S
C2248      C2585   1.403   1_554  A
C2249      H2252   1.085       .  S
C2249      C2584   1.403       .  A
C2249      C2250   1.393       .  A
C2250      C2581   1.411       .  A
C2250      C2253   1.446       .  S
C2253      N2255   1.157       .  T
C2254      N2256   1.158       .  T
C2257      C2258   1.407       .  A
C2257      C2262   1.409       .  A
C2258      H2263   1.085       .  S
C2258      C2259   1.409       .  A
C2259      C2260   1.416       .  A
C2259      C2266   1.443       .  S
C2260      C2261   1.410       .  A
C2261      H2264   1.085       .  S
C2261      C2262   1.399       .  A
C2262      C2265   1.445       .  S
C2265      N2267   1.157       .  T
C2266      N2268   1.157       .  T
C2269      C2270   1.402       .  A
C2269      C2274   1.419       .  A
C2270      H2275   1.085       .  S
C2270      C2271   1.398       .  A
C2271      C2272   1.419       .  A
C2271      C2278   1.446       .  S
C2272      C2273   1.403       .  A
C2273      H2276   1.085       .  S
C2273      C2274   1.409       .  A
C2274      C2277   1.442       .  S
C2277      N2279   1.157       .  T
C2278      N2280   1.157       .  T
C2281      C2282   1.400       .  A
C2281      C2286   1.417       .  A
C2282      H2287   1.085       .  S
C2282      C2283   1.399       .  A
C2283      C2284   1.421       .  A
C2283      C2290   1.445       .  S
C2284      C2285   1.406       .  A
C2285      H2288   1.084       .  S
C2285      C2286   1.409       .  A
C2286      C2289   1.444       .  S
C2289      N2291   1.157       .  T
C2290      N2292   1.157       .  T
C2293      C2294   1.408       .  A
C2293      C2298   1.409       .  A
C2294      H2299   1.085       .  S
C2294      C2295   1.409       .  A
C2295      C2296   1.416       .  A
C2295      C2302   1.443       .  S
C2296      C2297   1.412       .  A
C2297      H2300   1.084       .  S
C2297      C2298   1.400       .  A
C2298      C2301   1.445       .  S
C2301      N2303   1.157       .  T
C2302      N2304   1.157       .  T
C2305      C2310   1.418       .  A
C2306      H2311   1.085       .  S
C2306      C2307   1.395       .  A
C2307      C2314   1.445       .  S
C2308      C2309   1.404       .  A
C2309      H2312   1.085       .  S
C2309      C2310   1.404       .  A
C2310      C2313   1.445       .  S
C2313      N2315   1.158       .  T
C2314      N2316   1.157       .  T
C2317      C2318   1.398       .  A
C2317      C2322   1.408       .  A
C2318      H2323   1.084       .  S
C2318      C2319   1.394       .  A
C2319      C2320   1.419       .  A
C2319      C2326   1.445       .  S
C2320      C2321   1.409       .  A
C2321      H2324   1.083       .  S
C2321      C2322   1.401       .  A
C2322      C2325   1.444       .  S
C2325      N2327   1.157       .  T
C2326      N2328   1.157       .  T
C2329      C2334   1.408       .  A
C2330      H2335   1.085       .  S
C2330      C2331   1.397       .  A
C2331      C2338   1.445       .  S
C2332      C2333   1.409       .  A
C2333      H2336   1.084       .  S
C2333      C2334   1.399       .  A
C2334      C2337   1.444       .  S
C2337      N2339   1.157       .  T
C2338      N2340   1.158       .  T
C2341      C2342   1.411       .  A
C2341      C2346   1.417       .  A
C2342      H2347   1.084       .  S
C2342      C2343   1.402       .  A
C2343      C2344   1.412       .  A
C2343      C2350   1.445       .  S
C2344      C2345   1.405       .  A
C2345      C2346   1.398       .  A
C2349      N2351   1.157       .  T
C2350      N2352   1.157       .  T
O2353     Mg2355   2.142       .  S
O2353      C2388   1.234       .  S
C2354      O2391   1.267   1_455  A
C2354      H2393   1.081       .  S
Mg2355     O2399   2.294       .  S
Mg2355     O2395   2.243       .  S
Mg2355     O2366   2.296       .  S
O2356     Mg2381   2.158       .  S
O2357     Mg2381   2.294       .  S
C2358      O2360   1.278       .  A
C2358      O2372   1.271       .  A
C2358      C2620   1.494       .  S
O2359     Mg2361   2.310       .  S
O2360     Mg2392   2.315       .  S
Mg2361     O2367   2.121       .  S
Mg2361     O2375   2.247       .  S
Mg2361     O2363   2.287       .  S
C2362      O2400   1.269       .  A
C2362      C2656   1.486       .  S
O2363      C2370   1.274       .  A
H2364      C2377   1.081       .  S
C2365      O2379   1.234       .  S
C2365      H2390   1.080       .  S
O2366      C2389   1.268       .  A
O2367     Mg2381   2.166       .  S
O2368     Mg2398   2.287       .  S
C2369      O2382   1.269       .  A
C2369      C2665   1.471       .  S
C2370      O2397   1.278       .  A
C2370      C2632   1.500       .  S
Mg2371     O2378   2.136       .  S
Mg2371     O2372   2.281       .  S
Mg2371     O2373   2.301       .  S
Mg2371     O2400   2.252       .  S
O2374     Mg2381   2.301       .  S
O2375      C2394   1.267       .  A
O2376     Mg2392   2.317       .  S
O2378     Mg2392   2.159       .  S
O2379     Mg2398   2.141       .  S
O2380     Mg2392   2.300       .  S
Mg2381     O2397   2.313       .  S
O2382     Mg2398   2.234       .  S
H2383      C2388   1.081       .  S
O2384     Mg2392   2.168       .  S
H2385      C2387   1.081       .  S
H2386      C2389   1.081       .  S
O2391     Mg2398   2.283       .  S
C2394      C2641   1.487       .  S
O2395      C2396   1.270       .  A
C2396      C2677   1.493       .  S
O2401     Mg2403   2.135       .  S
O2401      C2436   1.234       .  S
C2402      O2439   1.267   1_554  A
C2402      H2441   1.081       .  S
Mg2403     O2447   2.276       .  S
Mg2403     O2443   2.231       .  S
Mg2403     O2414   2.291       .  S
O2404     Mg2429   2.167       .  S
O2405     Mg2429   2.300       .  S
C2406      O2408   1.276       .  A
C2406      O2420   1.275       .  A
C2406      C2596   1.498       .  S
O2407     Mg2409   2.296       .  S
O2408     Mg2440   2.304       .  S
Mg2409     O2415   2.129       .  S
Mg2409     O2423   2.248       .  S
Mg2409     O2411   2.276       .  S
C2410      O2448   1.269       .  A
C2410      C2680   1.484       .  S
O2411      C2418   1.271       .  A
H2412      C2425   1.081       .  S
C2413      O2427   1.234   1_655  S
C2413      H2438   1.081       .  S
O2414      C2437   1.268       .  A
O2415     Mg2429   2.149       .  S
O2416     Mg2446   2.290       .  S
C2417      O2430   1.271       .  A
C2417      C2569   1.476       .  S
C2418      O2445   1.278       .  A
C2418      C2608   1.490       .  S
Mg2419     O2426   2.132       .  S
Mg2419     O2420   2.293       .  S
Mg2419     O2421   2.304       .  S
Mg2419     O2448   2.255       .  S
O2422     Mg2429   2.301       .  S
O2423      C2442   1.268       .  A
O2424     Mg2440   2.301       .  S
O2426     Mg2440   2.161       .  S
O2427     Mg2446   2.149   1_455  S
O2428     Mg2440   2.296       .  S
Mg2429     O2445   2.318       .  S
O2430     Mg2446   2.256       .  S
H2431      C2436   1.081       .  S
O2432     Mg2440   2.151   1_554  S
H2433      C2435   1.081       .  S
H2434      C2437   1.081       .  S
O2439     Mg2446   2.289       .  S
C2442      C2668   1.488       .  S
O2443      C2444   1.268       .  A
C2444      C2581   1.471       .  S
O2449     Mg2451   2.165       .  S
O2449     Mg2457   2.153       .  S
O2449      C2484   1.236       .  S
C2450      O2463   1.236       .  S
C2450      O2487   1.271       .  A
C2450      H2489   1.081       .  S
Mg2451     O2480   2.156       .  S
Mg2451     O2495   2.315       .  S
Mg2451     O2491   2.291       .  S
Mg2451     O2462   2.305       .  S
O2452     Mg2494   2.155       .  S
O2452     Mg2477   2.148       .  S
O2452      C2473   1.234       .  S
O2453      C2484   1.271       .  A
O2453     Mg2477   2.307       .  S
C2454      O2456   1.274       .  A
C2454      O2468   1.274       .  A
C2454      C2560   1.486       .  S
O2455      C2483   1.271       .  A
O2455     Mg2457   2.310       .  S
O2456     Mg2488   2.297       .  S
Mg2457     O2463   2.166       .  S
Mg2457     O2471   2.287       .  S
Mg2457     O2459   2.308       .  S
C2458      O2496   1.272       .  A
C2458      O2464   1.276       .  A
C2458      C2617   1.488       .  S
O2459      C2466   1.275       .  A
H2460      C2473   1.081       .  S
C2461      O2475   1.236       .  S
C2461      O2476   1.271       .  A
C2461      H2486   1.081       .  S
O2462      C2485   1.271       .  A
O2463     Mg2477   2.162       .  S
O2464     Mg2494   2.304       .  S
C2465      O2478   1.273       .  A
C2465      O2470   1.277       .  A
C2465      C2605   1.493       .  S
C2466      O2493   1.271       .  A
C2466      C2545   1.474       .  S
Mg2467     O2474   2.158       .  S
Mg2467     O2475   2.162       .  S
Mg2467     O2468   2.284       .  S
Mg2467     O2469   2.300       .  S
Mg2467     O2496   2.282       .  S
O2469      C2473   1.269       .  A
O2470     Mg2477   2.312       .  S
O2471      C2490   1.273       .  A
O2472      C2492   1.276       .  A
O2472     Mg2488   2.310       .  S
O2474     Mg2488   2.165       .  S
O2474      C2485   1.236       .  S
O2475     Mg2494   2.158       .  S
O2476     Mg2488   2.302       .  S
Mg2477     O2493   2.272       .  S
O2478     Mg2494   2.286       .  S
H2479      C2484   1.081       .  S
O2480     Mg2488   2.164       .  S
O2480      C2483   1.236       .  S
H2481      C2483   1.081       .  S
H2482      C2485   1.081       .  S
O2487     Mg2494   2.307       .  S
C2490      O2495   1.276       .  A
C2490      C2629   1.488       .  S
O2491      C2492   1.274       .  A
C2492      C2593   1.487       .  S
O2497     Mg2505   2.150       .  S
O2497      C2532   1.234       .  S
C2498      O2511   1.236       .  S
C2498      O2535   1.270       .  A
C2498      H2537   1.081       .  S
Mg2499     O2528   2.151       .  S
Mg2499     O2543   2.293       .  S
Mg2499     O2539   2.248       .  S
O2500     Mg2542   2.152       .  S
O2500      C2521   1.235       .  S
O2501      C2532   1.267       .  A
O2501     Mg2525   2.292       .  S
C2502      O2504   1.272       .  A
C2502      O2516   1.279       .  A
C2502      C2557   1.490       .  S
O2503      C2531   1.271       .  A
O2504     Mg2536   2.264       .  S
Mg2505     O2511   2.128       .  S
Mg2505     O2519   2.252       .  S
Mg2505     O2507   2.330       .  S
C2506      O2512   1.273       .  A
C2506      C2644   1.475       .  S
O2507      C2514   1.278       .  A
H2508      C2521   1.081       .  S
C2509      O2523   1.233       .  S
C2509      O2524   1.268       .  A
C2509      H2534   1.081       .  S
O2510      C2533   1.270       .  A
O2511     Mg2525   2.157       .  S
O2512     Mg2542   2.298       .  S
C2513      O2518   1.268       .  A
C2513      C2584   1.480       .  S
C2514      O2541   1.270       .  A
C2514      C2548   1.499       .  S
Mg2515     O2522   2.141       .  S
Mg2515     O2523   2.152       .  S
Mg2515     O2516   2.324       .  S
Mg2515     O2544   2.262       .  S
O2517      C2521   1.270       .  A
O2518     Mg2525   2.265       .  S
O2520      C2540   1.273       .  A
O2520     Mg2536   2.297       .  S
O2522     Mg2536   2.164       .  S
O2522      C2533   1.236       .  S
O2524     Mg2536   2.296       .  S
Mg2525     O2541   2.251       .  S
O2526     Mg2542   2.260       .  S
H2527      C2532   1.081       .  S
O2528      C2531   1.235       .  S
H2529      C2531   1.080       .  S
H2530      C2533   1.081       .  S
C2538      O2543   1.272       .  A
C2538      C2653   1.471       .  S
C2540      C2572   1.488       .  S
C2545      C2546   1.401       .  A
C2545      C2550   1.404       .  A
C2546      H2551   1.085       .  S
C2546      C2547   1.402       .  A
C2547      C2548   1.418       .  A
C2547      C2554   1.443       .  S
C2548      C2549   1.414       .  A
C2549      H2552   1.084       .  S
C2549      C2550   1.404       .  A
C2550      C2553   1.443       .  S
C2553      N2555   1.157       .  T
C2554      N2556   1.157       .  T
C2557      C2558   1.410       .  A
C2557      C2562   1.415       .  A
C2558      H2563   1.084       .  S
C2558      C2559   1.410       .  A
C2559      C2560   1.411       .  A
C2559      C2566   1.442       .  S
C2560      C2561   1.404       .  A
C2561      H2564   1.085       .  S
C2561      C2562   1.397       .  A
C2562      C2565   1.446       .  S
C2565      N2567   1.157       .  T
C2566      N2568   1.157       .  T
C2569      C2570   1.401   1_556  A
C2569      C2574   1.410       .  A
C2570      H2575   1.086       .  S
C2570      C2571   1.395       .  A
C2571      C2572   1.417   1_554  A
C2571      C2578   1.444       .  S
C2572      C2573   1.409       .  A
C2573      C2574   1.404       .  A
C2577      N2579   1.157       .  T
C2578      N2580   1.157       .  T
C2581      C2582   1.402       .  A
C2582      H2587   1.085       .  S
C2582      C2583   1.402       .  A
C2583      C2584   1.418       .  A
C2583      C2590   1.445       .  S
C2585      H2588   1.085       .  S
C2585      C2586   1.393       .  A
C2586      C2589   1.445       .  S
C2589      N2591   1.157       .  T
C2590      N2592   1.158       .  T
C2593      C2594   1.407       .  A
C2593      C2598   1.409       .  A
C2594      H2599   1.085       .  S
C2594      C2595   1.409       .  A
C2595      C2596   1.417       .  A
C2595      C2602   1.443       .  S
C2596      C2597   1.411       .  A
C2597      H2600   1.085       .  S
C2597      C2598   1.400       .  A
C2598      C2601   1.445       .  S
C2601      N2603   1.157       .  T
C2602      N2604   1.157       .  T
C2605      C2606   1.402       .  A
C2605      C2610   1.419       .  A
C2606      H2611   1.085       .  S
C2606      C2607   1.399       .  A
C2607      C2608   1.419       .  A
C2607      C2614   1.446       .  S
C2608      C2609   1.403       .  A
C2609      H2612   1.085       .  S
C2609      C2610   1.409       .  A
C2610      C2613   1.442       .  S
C2613      N2615   1.157       .  T
C2614      N2616   1.157       .  T
C2617      C2618   1.399       .  A
C2617      C2622   1.417       .  A
C2618      H2623   1.085       .  S
C2618      C2619   1.399       .  A
C2619      C2620   1.422       .  A
C2619      C2626   1.445       .  S
C2620      C2621   1.406       .  A
C2621      H2624   1.084       .  S
C2621      C2622   1.409       .  A
C2622      C2625   1.444       .  S
C2625      N2627   1.157       .  T
C2626      N2628   1.157       .  T
C2629      C2630   1.408       .  A
C2629      C2634   1.409       .  A
C2630      H2635   1.085       .  S
C2630      C2631   1.409       .  A
C2631      C2632   1.416       .  A
C2631      C2638   1.443       .  S
C2632      C2633   1.412       .  A
C2633      H2636   1.084       .  S
C2633      C2634   1.400       .  A
C2634      C2637   1.445       .  S
C2637      N2639   1.157       .  T
C2638      N2640   1.157       .  T
C2641      C2646   1.418       .  A
C2642      H2647   1.085       .  S
C2642      C2643   1.395       .  A
C2643      C2650   1.445       .  S
C2644      C2645   1.404       .  A
C2645      H2648   1.085       .  S
C2645      C2646   1.404       .  A
C2646      C2649   1.445       .  S
C2649      N2651   1.158       .  T
C2650      N2652   1.157       .  T
C2653      C2654   1.398       .  A
C2653      C2658   1.409       .  A
C2654      H2659   1.084       .  S
C2654      C2655   1.394       .  A
C2655      C2656   1.419       .  A
C2655      C2662   1.445       .  S
C2656      C2657   1.409       .  A
C2657      H2660   1.083       .  S
C2657      C2658   1.402       .  A
C2658      C2661   1.444       .  S
C2661      N2663   1.157       .  T
C2662      N2664   1.157       .  T
C2665      C2670   1.408       .  A
C2666      H2671   1.085       .  S
C2666      C2667   1.397       .  A
C2667      C2674   1.445       .  S
C2668      C2669   1.409       .  A
C2669      H2672   1.084       .  S
C2669      C2670   1.399       .  A
C2670      C2673   1.444       .  S
C2673      N2675   1.157       .  T
C2674      N2676   1.158       .  T
C2677      C2678   1.411       .  A
C2677      C2682   1.417       .  A
C2678      H2683   1.084       .  S
C2678      C2679   1.402       .  A
C2679      C2680   1.412       .  A
C2679      C2686   1.445       .  S
C2680      C2681   1.405       .  A
C2681      C2682   1.398       .  A
C2685      N2687   1.157       .  T
C2686      N2688   1.157       .  T
