geometry optimzed in LAMMPS
_audit_creation_date              2020-11-30 
_audit_creation_method            'lammps2cif' 
_symmetry_space_group_name_H-M    'P1' 
_symmetry_Int_Tables_number       1 
_symmetry_cell_setting            triclinic 
loop_ 
_symmetry_equiv_pos_as_xyz 
  x,y,z 
_cell_length_a                    45.93815953 
_cell_length_b                    45.73953465533084 
_cell_length_c                    44.44881005785989 
_cell_angle_alpha                 90.33265143256851 
_cell_angle_beta                  89.6352359556079 
_cell_angle_gamma                 89.50709787883294 
loop_ 
_atom_site_label 
_atom_site_type_symbol 
_atom_site_fract_x 
_atom_site_fract_y 
_atom_site_fract_z 
_atom_site_charge 
C1          C  0.51431137  0.28887925  0.00749206     0.80800
N2          N  0.52764954  0.27906831  0.47534017    -0.77500
C3          C  0.55601273  0.28716354  0.47681958     0.83300
N4          N  0.56740637  0.29391488  0.50397960    -0.77400
C5          C  0.55483408  0.30731779  0.03335164     0.83400
N6          N  0.52724394  0.29744146  0.03333682    -0.79100
O7          O  0.68183968  0.36753742  0.29108762    -0.81200
C8          C  0.79666166  0.35644820  0.25405541     0.98200
O9          O  0.78286242  0.36346814  0.27764177    -0.70300
O10         O  0.73982391  0.38284361  0.31078644    -0.73900
Al11       Al  0.74619287  0.34789401  0.28861237     1.49000
C12         C  0.73273678  0.40843032  0.30334366     0.93400
O13         O  0.71107993  0.40644100  0.22111100    -0.80100
O14         O  0.70821268  0.34711091  0.19945783    -0.73700
Al15       Al  0.69950721  0.38462087  0.25598797     1.90100
O16         O  0.75213078  0.38564398  0.20669364    -0.72700
O17         O  0.73756281  0.30769529  0.22925567    -0.72600
O18         O  0.78377861  0.34508052  0.23200193    -0.78200
O19         O  0.75635835  0.30968934  0.27435002    -0.76400
O20         O  0.72979861  0.35999243  0.25478575    -1.12600
O21         O  0.71128723  0.33143432  0.30285016    -0.71800
C22         C  0.68696347  0.34423433  0.30545056     0.98900
C23         C  0.73406293  0.40649316  0.20525316     0.95300
Al24       Al  0.74413478  0.34741599  0.21977096     1.55600
O25         O  0.71970545  0.41294902  0.27897603    -0.76400
C26         C  0.74802071  0.29501073  0.25190904     0.99500
C27         C  0.68196496  0.34962385  0.20724411     0.94400
O28         O  0.67536900  0.35972655  0.23284461    -0.81700
C29         C  0.77558336  0.57977341  0.00074172     0.80800
N30         N  0.77867800  0.56975415  0.47615550    -0.77500
C31         C  0.76827041  0.54222130  0.47629380     0.83300
N32         N  0.75971914  0.52291308  0.00203139    -0.77400
C33         C  0.76524178  0.53714146  0.02827803     0.83400
N34         N  0.77331875  0.56562961  0.02745703    -0.79100
C35         C  0.81017293  0.08486320  0.23792392     0.80800
N36         N  0.81644367  0.07222602  0.21093574    -0.77500
C37         C  0.82614109  0.04418849  0.20942380     0.83300
N38         N  0.82882393  0.02845319  0.23503161    -0.77400
C39         C  0.82193022  0.04058507  0.26208626     0.83400
N40         N  0.81280083  0.06884243  0.26339449    -0.79100
O41         O  0.86066527  0.90939015  0.01435546    -0.81200
C42         C  0.82247964  0.79434894  0.99114307     0.98200
O43         O  0.81865379  0.80928341  0.01473846    -0.70300
O44         O  0.86737132  0.82685661  0.03756904    -0.73900
Al45       Al  0.83246549  0.84616177  0.02770688     1.49000
C46         C  0.89193284  0.83867429  0.03917333     0.93400
O47         O  0.90174471  0.85925174  0.46594199    -0.80100
O48         O  0.82536560  0.88954792  0.44334069    -0.73700
Al49       Al  0.87809958  0.87949423  0.99059580     1.90100
O50         O  0.86699746  0.84651907  0.43500797    -0.72700
O51         O  0.79274094  0.85337065  0.47311493    -0.72600
O52         O  0.83586529  0.81128451  0.46755946    -0.78200
O53         O  0.79609320  0.86414133  0.02178615    -0.76400
O54         O  0.84624192  0.85751139  0.99216475    -1.12600
O55         O  0.84284776  0.88063013  0.04898471    -0.71800
C56         C  0.84912008  0.90584702  0.03985141     0.98900
C57         C  0.89365921  0.84719682  0.44186514     0.95300
Al58       Al  0.83169594  0.85125692  0.45762622     1.55600
O59         O  0.89692800  0.86191341  0.02476432    -0.76400
C60         C  0.77985202  0.86113329  0.99935520     0.99500
C61         C  0.84450996  0.90870533  0.43945753     0.94400
O62         O  0.86811645  0.90728704  0.45366732    -0.81700
C63         C  0.06166380  0.77464854  0.24070132     0.80800
N64         N  0.04685498  0.77732081  0.21440035    -0.77500
C65         C  0.01764793  0.78219538  0.21434474     0.83300
N66         N  0.00350526  0.78501115  0.24106542    -0.77400
C67         C  0.01775615  0.78271317  0.26752518     0.83400
N68         N  0.04698244  0.77770198  0.26731806    -0.79100
C69         C  0.28361382  0.05944721  0.26191744     0.80800
N70         N  0.27833061  0.07553101  0.23688019    -0.77500
C71         C  0.26599558  0.10254783  0.23918422     0.83300
N72         N  0.25834863  0.11312127  0.26672392    -0.77400
C73         C  0.26361886  0.09731760  0.29185254     0.83400
N74         N  0.27623440  0.07048306  0.28940499    -0.79100
O75         O  0.17650047  0.27252877  0.47662733    -0.81200
C76         C  0.29760077  0.27974040  0.00719449     0.98200
O77         O  0.27686319  0.27950703  0.47891899    -0.70300
O78         O  0.23078468  0.25855701  0.45198819    -0.73900
Al79       Al  0.23891595  0.29428068  0.47201039     1.49000
C80         C  0.22624476  0.23297274  0.46104158     0.93400
O81         O  0.21084967  0.23768956  0.04815088    -0.80100
O82         O  0.21065613  0.30086696  0.06424997    -0.73700
Al83       Al  0.20027951  0.25725927  0.01179419     1.90100
O84         O  0.25208559  0.25740516  0.06071899    -0.72700
O85         O  0.24375083  0.33453931  0.03182102    -0.72600
O86         O  0.28613262  0.29122614  0.03035513    -0.78200
O87         O  0.25032192  0.33276850  0.48277487    -0.76400
O88         O  0.23113300  0.28084045  0.01032158    -1.12600
O89         O  0.20231717  0.31010561  0.46198814    -0.71800
C90         C  0.17900380  0.29578395  0.46151314     0.98900
C91         C  0.23355696  0.23755537  0.06391075     0.95300
Al92       Al  0.24676605  0.29481038  0.04394543     1.55600
O93         O  0.21716992  0.22886277  0.48752044    -0.76400
C94         C  0.25380024  0.34508136  0.00785718     0.99500
C95         C  0.18433128  0.29845644  0.05675413     0.94400
O96         O  0.17721804  0.28481038  0.03325141    -0.81700
C97         C  0.01455025  0.35603386  0.25807536     0.80800
N98         N  0.02792879  0.34902752  0.28419237    -0.77500
C99         C  0.05675893  0.34263630  0.28468122     0.83300
N100        N  0.07241048  0.34327843  0.25873283    -0.77400
C101        C  0.05947228  0.35048057  0.23241224     0.83400
N102        N  0.03050500  0.35657993  0.23225280    -0.79100
C103        C  0.33289916  0.55033281  0.00377558     0.80800
N104        N  0.32265565  0.56859005  0.47708612    -0.77500
C105        C  0.33117330  0.59688220  0.47665348     0.83300
N106        N  0.34814515  0.60740696  0.00425502    -0.77400
C107        C  0.34569753  0.59299985  0.03072739     0.83400
N108        N  0.33800192  0.56438089  0.03029155    -0.79100
O109        O  0.36824397  0.73031308  0.22928421    -0.81200
C110        C  0.32493914  0.84360969  0.25711386     0.98200
O111        O  0.32071135  0.82952129  0.23301862    -0.70300
O112        O  0.36864364  0.81178384  0.20710314    -0.73900
Al113      Al  0.33433421  0.79233727  0.21872400     1.49000
C114        C  0.39424589  0.80181345  0.20648352     0.93400
O115        O  0.40083501  0.78765026  0.28057547    -0.80100
O116        O  0.32602605  0.75103093  0.29866104    -0.73700
Al117      Al  0.38225571  0.76024963  0.25488973     1.90100
O118        O  0.36464484  0.79364694  0.31226624    -0.72700
O119        O  0.29222778  0.78923053  0.27223252    -0.72600
O120        O  0.33356920  0.83085833  0.28054999    -0.78200
O121        O  0.29775105  0.77442546  0.22582672    -0.76400
O122        O  0.34912864  0.78092113  0.25373176    -1.12600
O123        O  0.34505331  0.75779104  0.19693989    -0.71800
C124        C  0.35627307  0.73354172  0.20408456     0.98900
C125        C  0.39138605  0.79527337  0.30611911     0.95300
Al126      Al  0.33071274  0.79038551  0.28793261     1.55600
O127        O  0.40091103  0.77971972  0.22199173    -0.76400
C128        C  0.28148432  0.77941870  0.24821915     0.99500
C129        C  0.34629108  0.73254669  0.30148239     0.94400
O130        O  0.37041776  0.73616061  0.28808076    -0.81700
C131        C  0.56256507  0.86480485  0.00468508     0.80800
N132        N  0.54737013  0.86327132  0.03094441    -0.77500
C133        C  0.51800384  0.86008954  0.03084206     0.83300
N134        N  0.50405657  0.85822759  0.00404587    -0.77400
C135        C  0.51848681  0.85308851  0.47940233     0.83400
N136        N  0.54789450  0.85579481  0.47866598    -0.79100
C137        C  0.45556561  0.82830892  0.34731691    -0.13700
C138        C  0.45069477  0.81796248  0.37660911     0.16700
C139        C  0.42654814  0.79988629  0.38238650     0.02900
C140        C  0.40709422  0.79368379  0.35912316    -0.12200
C141        C  0.41169767  0.80429589  0.32993842    -0.03300
C142        C  0.43622287  0.82169471  0.32395504     0.02200
C143        C  0.46900968  0.82865526  0.40163278     0.09000
N144        N  0.42194747  0.78715830  0.41151341     0.65400
H145        H  0.38874951  0.77956614  0.36359705     0.18300
N146        N  0.44074913  0.83416775  0.29482894     0.75900
H147        H  0.47374389  0.84264558  0.34291745     0.09800
C148        C  0.49911110  0.82280617  0.40273284     0.03500
C149        C  0.51534443  0.83259542  0.42737531    -0.05200
C150        C  0.50189001  0.84778315  0.45139641    -0.23600
C151        C  0.47186627  0.85464990  0.44956741     0.12700
C152        C  0.45579579  0.84491840  0.42487715    -0.12800
N153        N  0.51298506  0.80513438  0.38012157     0.64400
H154        H  0.53820833  0.82674238  0.42850397     0.12300
N155        N  0.45744926  0.87179883  0.47235080     0.61100
H156        H  0.43275863  0.85012427  0.42376691     0.08400
O157        O  0.46492617  0.83094679  0.28153415    -0.40400
O158        O  0.42133230  0.85019790  0.28331032    -0.39600
O159        O  0.39645197  0.78414519  0.42172870    -0.39600
O160        O  0.44308037  0.77633905  0.42581380    -0.37300
O161        O  0.46774698  0.90452232  0.97377949    -0.38200
O162        O  0.43440786  0.86263757  0.48455697    -0.34300
O163        O  0.53215797  0.81600371  0.36320613    -0.35700
O164        O  0.50825849  0.77800703  0.37910873    -0.40000
C165        C  0.42914201  0.84948414  0.14665906    -0.13700
C166        C  0.45388015  0.83287680  0.13931729     0.16700
C167        C  0.46112031  0.80834731  0.15673819     0.02900
C168        C  0.44234573  0.79957370  0.17991680    -0.12200
C169        C  0.41613133  0.81483378  0.18584180    -0.03300
C170        C  0.41035423  0.84085705  0.16973130     0.02200
C171        C  0.47047588  0.84026431  0.11192968     0.09000
N172        N  0.48657401  0.79125678  0.15000863     0.65400
H173        H  0.44756317  0.77979394  0.19212763     0.18300
N174        N  0.38547087  0.85877897  0.17621903     0.75900
H175        H  0.42388641  0.86881608  0.13370372     0.09800
C176        C  0.45835093  0.83512642  0.08348292     0.03500
C177        C  0.47374686  0.84268741  0.05756812    -0.05200
C178        C  0.50151443  0.85533521  0.05929184    -0.23600
C179        C  0.51342356  0.86102256  0.08808653     0.12700
C180        C  0.49793091  0.85312635  0.11408077    -0.12800
N181        N  0.43080242  0.82111395  0.08064370     0.64400
H182        H  0.46410500  0.83774296  0.03596587     0.12300
N183        N  0.54068916  0.87552193  0.09142479     0.61100
H184        H  0.50707869  0.85756664  0.13604044     0.08400
O185        O  0.36236980  0.85505224  0.16151690    -0.40400
O186        O  0.38875620  0.88215639  0.19096886    -0.39600
O187        O  0.50743493  0.79058020  0.16832545    -0.39600
O188        O  0.48822067  0.77672104  0.12582747    -0.37300
O189        O  0.54275768  0.90223348  0.08484514    -0.38200
O190        O  0.56156366  0.86277173  0.10437986    -0.34300
O191        O  0.40824012  0.83610088  0.07537977    -0.35700
O192        O  0.42942592  0.79357499  0.08086018    -0.40000
C193        C  0.32178147  0.62223095  0.39578716    -0.13700
C194        C  0.33935389  0.64709004  0.39556536     0.16700
C195        C  0.35528140  0.65464740  0.42148817     0.02900
C196        C  0.35301339  0.63724930  0.44719268    -0.12200
C197        C  0.33468602  0.61280551  0.44790956    -0.03300
C198        C  0.31931213  0.60505140  0.42161047     0.02200
C199        C  0.34025667  0.66540750  0.36835347     0.09000
N200        N  0.37294819  0.68040790  0.42246731     0.65400
H201        H  0.36506161  0.64344821  0.46708308     0.18300
N202        N  0.29999031  0.58074100  0.42110806     0.75900
H203        H  0.30950700  0.61643720  0.37590561     0.09800
C204        C  0.36612730  0.66890005  0.35160079     0.03500
C205        C  0.36712522  0.69008006  0.32897495    -0.05200
C206        C  0.34264915  0.70754434  0.32230354    -0.23600
C207        C  0.31621182  0.70254331  0.33804365     0.12700
C208        C  0.31546129  0.68177902  0.36102273    -0.12800
N209        N  0.39158655  0.65153426  0.35772877     0.64400
H210        H  0.38742847  0.69324947  0.31695104     0.12300
N211        N  0.29012664  0.71869734  0.33162187     0.61100
H212        H  0.29552987  0.67890373  0.37381729     0.08400
O213        O  0.30745291  0.55747611  0.40763315    -0.40400
O214        O  0.27411336  0.58392260  0.43032394    -0.39600
O215        O  0.36295004  0.70458549  0.41342982    -0.39600
O216        O  0.39732222  0.67974536  0.43541628    -0.37300
O217        O  0.27854011  0.71657418  0.30603244    -0.38200
O218        O  0.27655963  0.73178101  0.35257416    -0.34300
O219        O  0.38941028  0.62438567  0.36207470    -0.35700
O220        O  0.41653911  0.66284150  0.35658745    -0.40000
C221        C  0.37730531  0.66600502  0.15807129    -0.13700
C222        C  0.35493641  0.66566446  0.13682393     0.16700
C223        C  0.33232825  0.68654568  0.13878668     0.02900
C224        C  0.33291021  0.70813059  0.16115004    -0.12200
C225        C  0.35561956  0.70909810  0.18212500    -0.03300
C226        C  0.37783673  0.68751921  0.18068774     0.02200
C227        C  0.35635971  0.64510736  0.11111148     0.09000
N228        N  0.30880351  0.68620884  0.11790618     0.65400
H229        H  0.31555916  0.72432724  0.16198775     0.18300
N230        N  0.40206593  0.68832835  0.20066763     0.75900
H231        H  0.39494470  0.65017911  0.15640358     0.09800
C232        C  0.36773703  0.65420000  0.08334327     0.03500
C233        C  0.36454673  0.63650771  0.05788511    -0.05200
C234        C  0.35027764  0.60939138  0.05939288    -0.23600
C235        C  0.34014947  0.59964355  0.08785765     0.12700
C236        C  0.34335353  0.61764778  0.11334347    -0.12800
N237        N  0.38209656  0.68170189  0.08061703     0.64400
H238        H  0.37321536  0.64431208  0.03670192     0.12300
N239        N  0.32527299  0.57246658  0.09129991     0.61100
H240        H  0.33438453  0.61076990  0.13475167     0.08400
O241        O  0.42271649  0.70571898  0.19575400    -0.40400
O242        O  0.40424001  0.66969697  0.22136987    -0.39600
O243        O  0.28669715  0.67086569  0.12328140    -0.39600
O244        O  0.30836324  0.70410238  0.09641617    -0.37300
O245        O  0.33333889  0.55485037  0.11141449    -0.38200
O246        O  0.30083119  0.56894233  0.07904588    -0.34300
O247        O  0.40705217  0.68501434  0.09177507    -0.35700
O248        O  0.37148264  0.70139924  0.06411178    -0.40000
C249        C  0.31472527  0.47226938  0.02663291    -0.13700
C250        C  0.28237472  0.46851538  0.50447217     0.16700
C251        C  0.27455412  0.48872514  0.48216861     0.02900
C252        C  0.28751013  0.51624991  0.48184666    -0.12200
C253        C  0.32208576  0.51978401  0.00343606    -0.03300
C254        C  0.32824690  0.49967665  0.02673671     0.02200
C255        C  0.27148739  0.43834145  0.50369681     0.09000
N256        N  0.25302682  0.48176860  0.46017513     0.65400
H257        H  0.28074818  0.53184047  0.46495935     0.18300
N258        N  0.34905360  0.50601252  0.04981854     0.75900
H259        H  0.31983099  0.45672732  0.04419421     0.09800
C260        C  0.28277973  0.41803717  0.48272872     0.03500
C261        C  0.27252269  0.38940532  0.48260599    -0.05200
C262        C  0.26196376  0.37642568  0.00596474    -0.23600
C263        C  0.25483458  0.39697123  0.02876506     0.12700
C264        C  0.26591989  0.42537702  0.02739180    -0.12800
N265        N  0.30593467  0.42576687  0.46269589     0.64400
H266        H  0.28224506  0.37384221  0.46695576     0.12300
N267        N  0.23611862  0.38954530  0.05328195     0.61100
H268        H  0.26035766  0.44089420  0.04507963     0.08400
O269        O  0.37363617  0.51619735  0.04286742    -0.40400
O270        O  0.34482851  0.49707717  0.07629930    -0.39600
O271        O  0.22697888  0.47781941  0.46827135    -0.39600
O272        O  0.25918961  0.48318556  0.43251577    -0.37300
O273        O  0.24691282  0.38272086  0.07833866    -0.38200
O274        O  0.20910947  0.39431243  0.05130295    -0.34300
O275        O  0.33122780  0.42948194  0.47288006    -0.35700
O276        O  0.30215617  0.42457573  0.43462504    -0.40000
C277        C  0.12162392  0.34698670  0.17565135    -0.13700
C278        C  0.10665246  0.34065020  0.14898602     0.16700
C279        C  0.07596715  0.33919161  0.14965403     0.02900
C280        C  0.06112748  0.34319135  0.17700254    -0.12200
C281        C  0.07611383  0.34929979  0.20376579    -0.03300
C282        C  0.10675684  0.35206242  0.20278218     0.02200
C283        C  0.12380513  0.33266111  0.12168725     0.09000
N284        N  0.05961467  0.33341880  0.12289777     0.65400
H285        H  0.03763983  0.34111666  0.17731126     0.18300
N286        N  0.12307337  0.36051498  0.22880844     0.75900
H287        H  0.14519902  0.34786081  0.17543517     0.09800
C288        C  0.14760491  0.34969983  0.11195529     0.03500
C289        C  0.16675062  0.33832607  0.09013063    -0.05200
C290        C  0.16184633  0.31104781  0.07669743    -0.23600
C291        C  0.13711008  0.29496267  0.08495247     0.12700
C292        C  0.11868134  0.30557074  0.10770514    -0.12800
N293        N  0.15274500  0.37829594  0.12422886     0.64400
H294        H  0.18568858  0.35082325  0.08359637     0.12300
N295        N  0.13200959  0.26659693  0.07251885     0.61100
H296        H  0.10100655  0.29189478  0.11542404     0.08400
O297        O  0.11614087  0.38344961  0.24318578    -0.40400
O298        O  0.14668737  0.34758107  0.23487061    -0.39600
O299        O  0.03889324  0.31547149  0.12346883    -0.39600
O300        O  0.06470802  0.34746196  0.09910062    -0.37300
O301        O  0.13954219  0.24409933  0.08690284    -0.38200
O302        O  0.11714306  0.26398330  0.04889923    -0.34300
O303        O  0.17838472  0.38650817  0.12953934    -0.35700
O304        O  0.13191530  0.39621955  0.12763178    -0.40000
C305        C  0.10650197  0.30784067  0.34220249    -0.13700
C306        C  0.09823312  0.32316983  0.36830499     0.16700
C307        C  0.07612845  0.34452762  0.36695498     0.02900
C308        C  0.06254540  0.35022270  0.33952652    -0.12200
C309        C  0.07080782  0.33493855  0.31327467    -0.03300
C310        C  0.09287759  0.31327333  0.31472832     0.02200
C311        C  0.11467762  0.31783610  0.39608290     0.09000
N312        N  0.06731412  0.36049156  0.39325775     0.65400
H313        H  0.04575460  0.36697557  0.33866386     0.18300
N314        N  0.10110569  0.29606541  0.28889362     0.75900
H315        H  0.12366796  0.29146721  0.34327135     0.09800
C316        C  0.11500917  0.29001701  0.40941178     0.03500
C317        C  0.13519947  0.28377687  0.43187481    -0.05200
C318        C  0.15524678  0.30489676  0.44132859    -0.23600
C319        C  0.15379931  0.33328980  0.42897251     0.12700
C320        C  0.13360083  0.33945614  0.40644746    -0.12800
N321        N  0.09562947  0.26764418  0.39953701     0.64400
H322        H  0.13587662  0.26189831  0.44109448     0.12300
N323        N  0.17324763  0.35579073  0.43829590     0.61100
H324        H  0.13358064  0.36083014  0.39603098     0.08400
O325        O  0.08193132  0.28293075  0.27388266    -0.40400
O326        O  0.12765365  0.29092467  0.28335921    -0.39600
O327        O  0.07277535  0.38740551  0.39545941    -0.39600
O328        O  0.05172632  0.34837670  0.41297169    -0.37300
O329        O  0.19388669  0.36334808  0.42124006    -0.38200
O330        O  0.16810602  0.37004982  0.46215564    -0.34300
O331        O  0.10565221  0.24360416  0.38976468    -0.35700
O332        O  0.06849414  0.27101684  0.40277129    -0.40000
C333        C  0.27360356  0.13774976  0.16224527    -0.13700
C334        C  0.24994710  0.15731047  0.16268522     0.16700
C335        C  0.23084935  0.15774403  0.18754211     0.02900
C336        C  0.23620998  0.13940448  0.21200215    -0.12200
C337        C  0.26041746  0.12038882  0.21211946    -0.03300
C338        C  0.27901636  0.11934001  0.18667643     0.02200
C339        C  0.24586287  0.17756349  0.13725552     0.09000
N340        N  0.20651219  0.17741701  0.18863837     0.65400
H341        H  0.22151660  0.14030863  0.23116950     0.18300
N342        N  0.30425835  0.10083945  0.18587456     0.75900
H343        H  0.28831097  0.13726605  0.14307315     0.09800
C344        C  0.26638370  0.19941356  0.13115257     0.03500
C345        C  0.26237917  0.21781972  0.10651601    -0.05200
C346        C  0.23815620  0.21501217  0.08748255    -0.23600
C347        C  0.21801960  0.19229243  0.09318314     0.12700
C348        C  0.22191275  0.17418969  0.11826229    -0.12800
N349        N  0.29083573  0.20385528  0.15045027     0.64400
H350        H  0.27791103  0.23517384  0.10304135     0.12300
N351        N  0.19393128  0.18677982  0.07365274     0.61100
H352        H  0.20652801  0.15684153  0.12256569     0.08400
O353        O  0.32640744  0.10755743  0.20098706    -0.40400
O354        O  0.30563405  0.07970612  0.16753063    -0.39600
O355        O  0.18096483  0.16760115  0.18730057    -0.39600
O356        O  0.21043110  0.20427175  0.19366766    -0.37300
O357        O  0.19860692  0.18035124  0.04637792    -0.38200
O358        O  0.16894113  0.18260388  0.08470986    -0.34300
O359        O  0.31621365  0.20482498  0.13947584    -0.35700
O360        O  0.28688773  0.20945722  0.17802407    -0.40000
C361        C  0.24707708  0.18927062  0.39115375    -0.13700
C362        C  0.23566805  0.16185216  0.39781513     0.16700
C363        C  0.22164896  0.15733630  0.42556088     0.02900
C364        C  0.21919882  0.18050075  0.44633651    -0.12200
C365        C  0.23067534  0.20821501  0.43971315    -0.03300
C366        C  0.24494542  0.21230983  0.41167978     0.02200
C367        C  0.23944525  0.13869914  0.37494832     0.09000
N368        N  0.20984052  0.12945937  0.43281617     0.65400
H369        H  0.20800576  0.17686453  0.46750001     0.18300
N370        N  0.25775681  0.23959394  0.40365028     0.75900
H371        H  0.25803252  0.19273294  0.36979406     0.09800
C372        C  0.21915314  0.13582036  0.35160998     0.03500
C373        C  0.22717263  0.12125046  0.32506544    -0.05200
C374        C  0.25525343  0.10939622  0.32144834    -0.23600
C375        C  0.27512679  0.11077893  0.34555756     0.12700
C376        C  0.26681180  0.12516370  0.37223651    -0.12800
N377        N  0.19111429  0.14945239  0.35376448     0.64400
H378        H  0.21171920  0.12005939  0.30677223     0.12300
N379        N  0.30467283  0.10080874  0.34219994     0.61100
H380        H  0.28273307  0.12823685  0.38985035     0.08400
O381        O  0.24650672  0.25492052  0.38318927    -0.40400
O382        O  0.28228075  0.24642166  0.41407388    -0.39600
O383        O  0.22560358  0.11051027  0.44546090    -0.39600
O384        O  0.18288623  0.12514839  0.43017639    -0.37300
O385        O  0.31961917  0.10898796  0.31990524    -0.38200
O386        O  0.31730752  0.08844481  0.36388859    -0.34300
O387        O  0.18662929  0.17370309  0.34115240    -0.35700
O388        O  0.16987377  0.13522956  0.36401470    -0.40000
C389        C  0.30531269  0.92047034  0.28245216    -0.13700
C390        C  0.31269067  0.93661561  0.25677468     0.16700
C391        C  0.32483985  0.92201885  0.23143147     0.02900
C392        C  0.32727368  0.89148642  0.23176891    -0.12200
C393        C  0.31992891  0.87542154  0.25741441    -0.03300
C394        C  0.30891935  0.89011352  0.28304602     0.02200
C395        C  0.30619360  0.96840150  0.25670846     0.09000
N396        N  0.33548662  0.93781081  0.20577064     0.65400
H397        H  0.33605283  0.88012578  0.21211611     0.18300
N398        N  0.29980453  0.87436912  0.30914195     0.75900
H399        H  0.29576613  0.93148082  0.30192847     0.09800
C400        C  0.28912522  0.98160636  0.23404485     0.03500
C401        C  0.28401225  0.01184134  0.23510769    -0.05200
C402        C  0.29422027  0.02896649  0.25906032    -0.23600
C403        C  0.31141263  0.01574314  0.28150708     0.12700
C404        C  0.31719029  0.98569773  0.28008483    -0.12800
N405        N  0.27554006  0.96457640  0.21085044     0.64400
H406        H  0.27022421  0.02166967  0.21818634     0.12300
N407        N  0.32389531  0.03261069  0.30533155     0.61100
H408        H  0.33067469  0.97577523  0.29721022     0.08400
O409        O  0.27867611  0.85697766  0.30753513    -0.40400
O410        O  0.31111753  0.87975802  0.33434695    -0.39600
O411        O  0.34899909  0.96148932  0.20931484    -0.39600
O412        O  0.33429604  0.92656993  0.17979556    -0.37300
O413        O  0.32270490  0.02353894  0.33207724    -0.38200
O414        O  0.33981805  0.05411531  0.29911473    -0.34300
O415        O  0.26264568  0.94115010  0.21731823    -0.35700
O416        O  0.27346300  0.97458448  0.18453033    -0.40000
C417        C  0.14016160  0.76056761  0.26414950    -0.13700
C418        C  0.15553096  0.77443796  0.24097341     0.16700
C419        C  0.13999347  0.78624459  0.21653468     0.02900
C420        C  0.10951138  0.78457923  0.21621254    -0.12200
C421        C  0.09395954  0.77191226  0.24013463    -0.03300
C422        C  0.10969688  0.75904195  0.26396899     0.02200
C423        C  0.18780808  0.77578256  0.24265614     0.09000
N424        N  0.15466257  0.80130372  0.19271559     0.65400
H425        H  0.09787428  0.79474655  0.19784612     0.18300
N426        N  0.09529309  0.74312754  0.28732384     0.75900
H427        H  0.15206034  0.75041513  0.28236186     0.09800
C428        C  0.20160272  0.78752476  0.26821520     0.03500
C429        C  0.23199067  0.78701433  0.26998062    -0.05200
C430        C  0.24937718  0.77566687  0.24640259    -0.23600
C431        C  0.23548078  0.76344537  0.22097973     0.12700
C432        C  0.20495168  0.76375456  0.21933522    -0.12800
N433        N  0.18508876  0.80110417  0.29204851     0.64400
H434        H  0.24202547  0.79680150  0.28955901     0.12300
N435        N  0.25185910  0.75006336  0.19700918     0.61100
H436        H  0.19450698  0.75396209  0.19998741     0.08400
O437        O  0.10355311  0.74564126  0.31424581    -0.40400
O438        O  0.07804110  0.72287982  0.28043322    -0.39600
O439        O  0.14810194  0.79622697  0.16566253    -0.39600
O440        O  0.17208416  0.82169125  0.19871322    -0.37300
O441        O  0.26698342  0.72745798  0.20201109    -0.38200
O442        O  0.24819491  0.75838397  0.17026595    -0.34300
O443        O  0.19046438  0.79495530  0.31910820    -0.35700
O444        O  0.16684503  0.82105542  0.28625135    -0.40000
C445        C  0.64208866  0.85863444  0.98219900    -0.13700
C446        C  0.65557169  0.87362034  0.00579052     0.16700
C447        C  0.63835413  0.88629036  0.02898763     0.02900
C448        C  0.60805974  0.88252356  0.02854749    -0.12200
C449        C  0.59460983  0.86723018  0.00498364    -0.03300
C450        C  0.61234246  0.84863280  0.48035716     0.02200
C451        C  0.68775940  0.87343447  0.00636476     0.09000
N452        N  0.65115422  0.90329786  0.05267456     0.65400
H453        H  0.59485137  0.89236517  0.04623337     0.18300
N454        N  0.59953205  0.83177855  0.45676078     0.75900
H455        H  0.65539291  0.84178980  0.46269763     0.09800
C456        C  0.70350911  0.86080987  0.03034565     0.03500
C457        C  0.73392065  0.85903607  0.02839616    -0.05200
C458        C  0.74871895  0.86819575  0.00247638    -0.23600
C459        C  0.73341744  0.87818079  0.47659580     0.12700
C460        C  0.70305498  0.87841945  0.47865440    -0.12800
N461        N  0.68904375  0.84783793  0.05566111     0.64400
H462        H  0.74590588  0.84843865  0.04628054     0.12300
N463        N  0.74712839  0.89084534  0.45092509     0.61100
H464        H  0.69049610  0.88753374  0.46033699     0.08400
O465        O  0.58875591  0.80712077  0.46248790    -0.40400
O466        O  0.60217188  0.83981098  0.42977460    -0.39600
O467        O  0.67109239  0.92126139  0.04682951    -0.39600
O468        O  0.64083124  0.90232621  0.07904185    -0.37300
O469        O  0.74564343  0.87827294  0.42564545    -0.38200
O470        O  0.75644828  0.91666669  0.45255942    -0.34300
O471        O  0.66812596  0.83055733  0.05162076    -0.35700
O472        O  0.69961122  0.85044388  0.08168038    -0.40000
C473        C  0.92799814  0.79255569  0.09940966    -0.13700
C474        C  0.95094492  0.81073943  0.10795390     0.16700
C475        C  0.95658285  0.83617031  0.09128123     0.02900
C476        C  0.93835459  0.84375942  0.06736955    -0.12200
C477        C  0.91411218  0.82660996  0.05998413    -0.03300
C478        C  0.90972544  0.80003347  0.07554608     0.02200
C479        C  0.96814898  0.80317297  0.13492429     0.09000
N480        N  0.97940130  0.85558157  0.09976168     0.65400
H481        H  0.94219399  0.86417952  0.05581922     0.18300
N482        N  0.88669581  0.78054437  0.06772811     0.75900
H483        H  0.92407639  0.77250985  0.11162897     0.09800
C484        C  0.95444592  0.80017051  0.16313399     0.03500
C485        C  0.97086258  0.79188616  0.18807099    -0.05200
C486        C  0.00117499  0.78716040  0.18594962    -0.23600
C487        C  0.01475526  0.78967598  0.15733774     0.12700
C488        C  0.99815010  0.79779301  0.13227454    -0.12800
N489        N  0.92406556  0.80670124  0.16706871     0.64400
H490        H  0.95972615  0.79024289  0.20954097     0.12300
N491        N  0.04519470  0.78404172  0.15311417     0.61100
H492        H  0.00867346  0.79950409  0.11046588     0.08400
O493        O  0.86781503  0.77369082  0.08713766    -0.40400
O494        O  0.88682093  0.76799219  0.04235961    -0.39600
O495        O  0.99952647  0.86130673  0.08132180    -0.39600
O496        O  0.97794743  0.86918269  0.12452142    -0.37300
O497        O  0.05474353  0.75811651  0.15427901    -0.38200
O498        O  0.06141292  0.80389695  0.14303170    -0.34300
O499        O  0.90774298  0.78886086  0.18046116    -0.35700
O500        O  0.91404975  0.83137869  0.15957939    -0.40000
C501        C  0.99087206  0.78324357  0.34899229    -0.13700
C502        C  0.97053840  0.80622293  0.34798377     0.16700
C503        C  0.96592547  0.82114625  0.32087777     0.02900
C504        C  0.98125576  0.81263512  0.29504343    -0.12200
C505        C  0.00173189  0.78964468  0.29570893    -0.03300
C506        C  0.00644931  0.77461423  0.32301339     0.02200
C507        C  0.95258916  0.81349763  0.37463857     0.09000
N508        N  0.94575185  0.84510790  0.31938637     0.65400
H509        H  0.97756532  0.82459881  0.27441103     0.18300
N510        N  0.02516931  0.74941826  0.32424499     0.75900
H511        H  0.99381486  0.77134102  0.36977949     0.09800
C512        C  0.92471488  0.80147713  0.37822787     0.03500
C513        C  0.90625784  0.81204232  0.40098491    -0.05200
C514        C  0.91527264  0.83424085  0.42073695    -0.23600
C515        C  0.94394123  0.84500942  0.41815991     0.12700
C516        C  0.96221758  0.83474141  0.39497736    -0.12800
N517        N  0.91460701  0.77909369  0.35838838     0.64400
H518        H  0.88443547  0.80335989  0.40265552     0.12300
N519        N  0.95419420  0.86764089  0.43758413     0.61100
H520        H  0.98367724  0.84407114  0.39221512     0.08400
O521        O  0.02239679  0.72917150  0.30509231    -0.40400
O522        O  0.04074593  0.74504098  0.34710655    -0.39600
O523        O  0.95133213  0.86885918  0.33264820    -0.39600
O524        O  0.92393135  0.84360987  0.30236339    -0.37300
O525        O  0.96484522  0.86111110  0.46279017    -0.38200
O526        O  0.95698417  0.89325983  0.42766866    -0.34300
O527        O  0.91169444  0.75336941  0.36798825    -0.35700
O528        O  0.90424667  0.78587094  0.33312620    -0.40000
C529        C  0.81741677  0.95401427  0.10147570    -0.13700
C530        C  0.83632067  0.97777954  0.10048820     0.16700
C531        C  0.85819614  0.97890371  0.07825568     0.02900
C532        C  0.86157211  0.95560319  0.05796355    -0.12200
C533        C  0.84344891  0.93111717  0.05973060    -0.03300
C534        C  0.82075876  0.93071372  0.08136370     0.02200
C535        C  0.83587910  0.99832208  0.12598885     0.09000
N536        N  0.87744760  0.00325866  0.07658649     0.65400
H537        H  0.87890344  0.95630875  0.04132783     0.18300
N538        N  0.80112046  0.90671104  0.08344601     0.75900
H539        H  0.80074172  0.95299407  0.11880860     0.09800
C540        C  0.81299714  0.01855982  0.13011103     0.03500
C541        C  0.81100624  0.03454915  0.15696513    -0.05200
C542        C  0.83126097  0.03007204  0.18005597    -0.23600
C543        C  0.85446286  0.01010146  0.17560353     0.12700
C544        C  0.85662498  0.99449120  0.14859021    -0.12800
N545        N  0.79105811  0.02209267  0.10774260     0.64400
H546        H  0.79285041  0.04953784  0.16030233     0.12300
N547        N  0.87580553  0.00529878  0.19837593     0.61100
H548        H  0.87403962  0.97856581  0.14559031     0.08400
O549        O  0.77749023  0.90745801  0.06914918    -0.40400
O550        O  0.80498252  0.88745974  0.10328528    -0.39600
O551        O  0.90461110  0.99929531  0.07817931    -0.39600
O552        O  0.86744459  0.02849528  0.07137118    -0.37300
O553        O  0.87850486  0.98038254  0.21013702    -0.38200
O554        O  0.89397366  0.02498940  0.20439174    -0.34300
O555        O  0.76577416  0.01243953  0.11232297    -0.35700
O556        O  0.79639557  0.03649560  0.08425336    -0.40000
C557        C  0.85656452  0.97213846  0.38576744    -0.13700
C558        C  0.82952752  0.97361592  0.37145922     0.16700
C559        C  0.80690788  0.95512237  0.38091548     0.02900
C560        C  0.81222971  0.93446254  0.40331745    -0.12200
C561        C  0.83952678  0.93230511  0.41726975    -0.03300
C562        C  0.86174454  0.95184812  0.40855939     0.02200
C563        C  0.82663819  0.99142357  0.34398213     0.09000
N564        N  0.77854959  0.95695544  0.36773668     0.65400
H565        H  0.79486125  0.91981484  0.40958409     0.18300
N566        N  0.89028075  0.95015568  0.42105358     0.75900
H567        H  0.87424805  0.98588629  0.37819603     0.09800
C568        C  0.83196694  0.02169860  0.34405092     0.03500
C569        C  0.83046919  0.03723555  0.31706053    -0.05200
C570        C  0.82353896  0.02313412  0.28989020    -0.23600
C571        C  0.81833323  0.99270306  0.28989106     0.12700
C572        C  0.82031279  0.97719571  0.31681022    -0.12800
N573        N  0.83853313  0.03695573  0.37135763     0.64400
H574        H  0.83463365  0.06052732  0.31739006     0.12300
N575        N  0.80996775  0.97737283  0.26313647     0.61100
H576        H  0.81660899  0.95381336  0.31658113     0.08400
O577        O  0.90956685  0.93462943  0.40823548    -0.40400
O578        O  0.89734098  0.96738178  0.44199176    -0.39600
O579        O  0.76575316  0.93404071  0.35930596    -0.39600
O580        O  0.76535490  0.98123996  0.36654307    -0.37300
O581        O  0.78679591  0.98444156  0.24979484    -0.38200
O582        O  0.82337030  0.95432216  0.25531637    -0.34300
O583        O  0.86122075  0.05222863  0.37307205    -0.35700
O584        O  0.82060775  0.03697731  0.39299436    -0.40000
C585        C  0.80653235  0.65447820  0.01934990    -0.13700
C586        C  0.79367100  0.67161921  0.99686606     0.16700
C587        C  0.79329689  0.66056899  0.47313213     0.02900
C588        C  0.78801661  0.63061872  0.47507261    -0.12200
C589        C  0.78317017  0.61105432  0.99950667    -0.03300
C590        C  0.80159595  0.62432928  0.02085789     0.02200
C591        C  0.80055288  0.70311783  0.99525008     0.09000
N592        N  0.78387953  0.67610702  0.44695635     0.65400
H593        H  0.77687101  0.62025829  0.45649231     0.18300
N594        N  0.81655849  0.60744579  0.04314670     0.75900
H595        H  0.82120004  0.66450300  0.03531043     0.09800
C596        C  0.79602951  0.72169535  0.02022123     0.03500
C597        C  0.80420552  0.75097369  0.01850141    -0.05200
C598        C  0.81639733  0.76255746  0.99203135    -0.23600
C599        C  0.83537816  0.74791358  0.47047055     0.12700
C600        C  0.82896627  0.71808146  0.47205587    -0.12800
N601        N  0.78227348  0.71136977  0.04712331     0.64400
H602        H  0.80009466  0.76491603  0.03788706     0.12300
N603        N  0.85303716  0.75808440  0.44610644     0.61100
H604        H  0.83717907  0.70347349  0.45462355     0.08400
O605        O  0.83173498  0.58551339  0.03532376    -0.40400
O606        O  0.81783710  0.61661913  0.06994127    -0.39600
O607        O  0.79049891  0.66664499  0.42104808    -0.39600
O608        O  0.76699134  0.69790151  0.44959398    -0.37300
O609        O  0.87816738  0.76776167  0.45130221    -0.38200
O610        O  0.84523642  0.75376847  0.41928045    -0.34300
O611        O  0.79378254  0.71598622  0.07239877    -0.35700
O612        O  0.75750549  0.69969584  0.04588918    -0.40000
C613        C  0.87263705  0.38553953  0.26510871    -0.13700
C614        C  0.88938154  0.36266783  0.25261684     0.16700
C615        C  0.87548000  0.33807283  0.24000903     0.02900
C616        C  0.84506586  0.33730006  0.23954637    -0.12200
C617        C  0.82835168  0.35990205  0.25251517    -0.03300
C618        C  0.84222391  0.38440800  0.26502983     0.02200
C619        C  0.92137938  0.36459527  0.25339766     0.09000
N620        N  0.89180190  0.31321753  0.22902097     0.65400
H621        H  0.83437943  0.31817854  0.23043960     0.18300
N622        N  0.82569697  0.40870331  0.27657250     0.75900
H623        H  0.88328540  0.40452589  0.27454640     0.09800
C624        C  0.93836791  0.36398048  0.22685360     0.03500
C625        C  0.96869215  0.36181182  0.22903147    -0.05200
C626        C  0.98255751  0.36085442  0.25717154    -0.23600
C627        C  0.96526820  0.36287549  0.28362967     0.12700
C628        C  0.93500345  0.36452631  0.28143042    -0.12800
N629        N  0.92516362  0.36528983  0.19767681     0.64400
H630        H  0.98140347  0.36064922  0.20844596     0.12300
N631        N  0.97787172  0.36304302  0.31295460     0.61100
H632        H  0.92195078  0.36508427  0.30184061     0.08400
O633        O  0.81007805  0.42370990  0.25910418    -0.40400
O634        O  0.82851884  0.41663811  0.30362521    -0.39600
O635        O  0.91265712  0.30295362  0.24414359    -0.39600
O636        O  0.88318375  0.29929903  0.20618884    -0.37300
O637        O  0.98927512  0.38610744  0.32296211    -0.38200
O638        O  0.97390679  0.34171202  0.33034860    -0.34300
O639        O  0.90523650  0.38373039  0.19251658    -0.35700
O640        O  0.93509682  0.34982167  0.17628165    -0.40000
C641        C  0.79390323  0.16432096  0.21928062    -0.13700
C642        C  0.77729105  0.17278034  0.24436559     0.16700
C643        C  0.77112725  0.15242098  0.26703601     0.02900
C644        C  0.78236008  0.12401611  0.26469299    -0.12200
C645        C  0.79931272  0.11535246  0.23968069    -0.03300
C646        C  0.80500819  0.13587693  0.21673932     0.02200
C647        C  0.76858599  0.20362118  0.24762776     0.09000
N648        N  0.75298934  0.16018908  0.29216347     0.65400
H649        H  0.77721690  0.10852252  0.28225524     0.18300
N650        N  0.82314289  0.12870026  0.19147018     0.75900
H651        H  0.79901570  0.18017632  0.20203942     0.09800
C652        C  0.78358780  0.22227816  0.26726508     0.03500
C653        C  0.77535305  0.25164904  0.26937974    -0.05200
C654        C  0.75261729  0.26300183  0.25177859    -0.23600
C655        C  0.73667657  0.24386658  0.23300708     0.12700
C656        C  0.74522470  0.21439262  0.23086181    -0.12800
N657        N  0.80814594  0.21200896  0.28399094     0.64400
H658        H  0.78789591  0.26596361  0.28375263     0.12300
N659        N  0.71144832  0.25358676  0.21679005     0.61100
H660        H  0.73334597  0.19959658  0.21640004     0.08400
O661        O  0.85046885  0.12955031  0.19398529    -0.40400
O662        O  0.81197175  0.12525905  0.16584523    -0.39600
O663        O  0.72616533  0.16486371  0.28826275    -0.39600
O664        O  0.76281228  0.15846102  0.31854612    -0.37300
O665        O  0.69268070  0.26980914  0.22957030    -0.38200
O666        O  0.70545668  0.24214079  0.19169519    -0.34300
O667        O  0.83082279  0.20336497  0.27031178    -0.35700
O668        O  0.80856190  0.21498745  0.31222830    -0.40000
C669        C  0.75250664  0.51905604  0.11117380    -0.13700
C670        C  0.75576396  0.48859603  0.11055720     0.16700
C671        C  0.76273591  0.47432272  0.08321753     0.02900
C672        C  0.76636080  0.49079129  0.05705876    -0.12200
C673        C  0.76243275  0.52131322  0.05724114    -0.03300
C674        C  0.75550278  0.53558894  0.08482116     0.02200
C675        C  0.75132695  0.47165405  0.13841831     0.09000
N676        N  0.76525890  0.44306147  0.08147376     0.65400
H677        H  0.77168575  0.47944975  0.03624158     0.18300
N678        N  0.74996812  0.56645762  0.08635448     0.75900
H679        H  0.74687678  0.52994671  0.13216515     0.09800
C680        C  0.77441007  0.45576422  0.15148456     0.03500
C681        C  0.76827912  0.43516534  0.17380418    -0.05200
C682        C  0.73962338  0.43049111  0.18381668    -0.23600
C683        C  0.71683379  0.44771305  0.17182830     0.12700
C684        C  0.72290367  0.46814915  0.14936565    -0.12800
N685        N  0.80400193  0.46007790  0.14200829     0.64400
H686        H  0.78606134  0.42262225  0.18332393     0.12300
N687        N  0.68718224  0.44315092  0.18042094     0.61100
H688        H  0.70508681  0.48008897  0.13912764     0.08400
O689        O  0.73000302  0.57762058  0.07064648    -0.40400
O690        O  0.76140580  0.58156977  0.10690885    -0.39600
O691        O  0.74483985  0.42720849  0.09096717    -0.39600
O692        O  0.78637653  0.43135086  0.06750128    -0.37300
O693        O  0.67304010  0.42247013  0.16879169    -0.38200
O694        O  0.67435653  0.46134984  0.19745465    -0.34300
O695        O  0.81351554  0.48560863  0.13817404    -0.35700
O696        O  0.82142249  0.43863596  0.14014517    -0.40000
C697        C  0.73559073  0.48952979  0.42010498    -0.13700
C698        C  0.75314093  0.49458356  0.39486252     0.16700
C699        C  0.77404044  0.51678345  0.39560401     0.02900
C700        C  0.77773135  0.53315046  0.42195731    -0.12200
C701        C  0.76095852  0.52740007  0.44778926    -0.03300
C702        C  0.73905861  0.50590588  0.44647648     0.02200
C703        C  0.75068969  0.47473406  0.36892977     0.09000
N704        N  0.79241747  0.52203159  0.37019053     0.65400
H705        H  0.79465765  0.54950085  0.42260808     0.18300
N706        N  0.71991840  0.50081279  0.47145767     0.75900
H707        H  0.71926474  0.47256716  0.41932863     0.09800
C708        C  0.76664565  0.44844064  0.36830912     0.03500
C709        C  0.76127163  0.42778070  0.34592660    -0.05200
C710        C  0.73977728  0.43268080  0.32409944    -0.23600
C711        C  0.72477456  0.45979630  0.32388889     0.12700
C712        C  0.73036991  0.48061617  0.34634513    -0.12800
N713        N  0.78735092  0.44187412  0.39122587     0.64400
H714        H  0.77342086  0.40736459  0.34626434     0.12300
N715        N  0.70263015  0.46581366  0.30230160     0.61100
H716        H  0.71797208  0.50088242  0.34692150     0.08400
O717        O  0.71578464  0.47511408  0.48065346    -0.40400
O718        O  0.70482499  0.52157840  0.48228738    -0.39600
O719        O  0.78624691  0.54240648  0.35225444    -0.39600
O720        O  0.81660647  0.50891582  0.36784476    -0.37300
O721        O  0.70768571  0.48304720  0.28086781    -0.38200
O722        O  0.67719043  0.45636388  0.30639122    -0.34300
O723        O  0.77903635  0.43001044  0.41531760    -0.35700
O724        O  0.81421176  0.44412459  0.38572755    -0.40000
C725        C  0.64485609  0.32560246  0.13557887    -0.13700
C726        C  0.61734208  0.33843156  0.13926222     0.16700
C727        C  0.60978932  0.35174498  0.16684742     0.02900
C728        C  0.63063109  0.35352745  0.18968897    -0.12200
C729        C  0.65912417  0.34269002  0.18508712    -0.03300
C730        C  0.66587721  0.32788639  0.15778814     0.02200
C731        C  0.59724290  0.33668222  0.11364447     0.09000
N732        N  0.58172353  0.36486953  0.17132380     0.65400
H733        H  0.62495999  0.36493705  0.21037150     0.18300
N734        N  0.69410611  0.31571273  0.15157731     0.75900
H735        H  0.65041823  0.31443951  0.11469459     0.09800
C736        C  0.60624077  0.34671141  0.08517131     0.03500
C737        C  0.59197486  0.33690470  0.05945233    -0.05200
C738        C  0.56827090  0.31783166  0.06153288    -0.23600
C739        C  0.55781600  0.30980021  0.09039116     0.12700
C740        C  0.57242346  0.31934022  0.11612986    -0.12800
N741        N  0.63056206  0.36598905  0.08213998     0.64400
H742        H  0.59957962  0.34431076  0.03768600     0.12300
N743        N  0.53383578  0.29034145  0.09404453     0.61100
H744        H  0.56571774  0.31128063  0.13796912     0.08400
O745        O  0.69677882  0.28839169  0.14843127    -0.40400
O746        O  0.71366103  0.33200763  0.14100413    -0.39600
O747        O  0.56512086  0.35568328  0.19185552    -0.39600
O748        O  0.57462089  0.38735662  0.15668112    -0.37300
O749        O  0.53669255  0.26372868  0.08685661    -0.38200
O750        O  0.51144250  0.29869133  0.10839180    -0.34300
O751        O  0.64962351  0.36136700  0.06204908    -0.35700
O752        O  0.63246736  0.38832531  0.09880878    -0.40000
C753        C  0.58364002  0.28806292  0.39537533    -0.13700
C754        C  0.60777439  0.30641625  0.39815895     0.16700
C755        C  0.61482566  0.31817583  0.42652485     0.02900
C756        C  0.59816617  0.31064796  0.45168025    -0.12200
C757        C  0.57387039  0.29222298  0.44927576    -0.03300
C758        C  0.56670038  0.28077341  0.42063867     0.02200
C759        C  0.62636970  0.31245622  0.37170690     0.09000
N760        N  0.63828339  0.33848418  0.42998596     0.65400
H761        H  0.60375311  0.32034966  0.47314652     0.18300
N762        N  0.54298329  0.26106413  0.41691041     0.75900
H763        H  0.57835944  0.27882705  0.37359418     0.09800
C764        C  0.65489048  0.30105425  0.36984788     0.03500
C765        C  0.67391100  0.31113409  0.34759588    -0.05200
C766        C  0.66499912  0.33235821  0.32670832    -0.23600
C767        C  0.63588929  0.34276723  0.32789474     0.12700
C768        C  0.61696492  0.33285942  0.35043724    -0.12800
N769        N  0.66496655  0.27971304  0.39089278     0.64400
H770        H  0.69599544  0.30261902  0.34710452     0.12300
N771        N  0.62526113  0.36364173  0.30672497     0.61100
H772        H  0.59507120  0.34180011  0.35192446     0.08400
O773        O  0.54471675  0.23551034  0.42734860    -0.40400
O774        O  0.52197893  0.26788376  0.40011369    -0.39600
O775        O  0.64046479  0.36003052  0.41251248    -0.39600
O776        O  0.65470231  0.33696533  0.45259992    -0.37300
O777        O  0.62029239  0.35584786  0.27997720    -0.38200
O778        O  0.61793467  0.38896379  0.31547670    -0.34300
O779        O  0.65300587  0.25500611  0.39207620    -0.35700
O780        O  0.68757930  0.28439916  0.40610090    -0.40000
C781        C  0.37346164  0.29624312  0.51449642    -0.13700
C782        C  0.39007231  0.27461704  0.00668586     0.16700
C783        C  0.37494425  0.28399196  0.98088280     0.02900
C784        C  0.34457109  0.28316527  0.98073045    -0.12200
C785        C  0.32905503  0.27447211  0.00633283    -0.03300
C786        C  0.34344864  0.30099626  0.51599697     0.02200
C787        C  0.42207570  0.27621715  0.00818359     0.09000
N788        N  0.38993466  0.29634791  0.95563426     0.65400
H789        H  0.33299696  0.29149443  0.96135117     0.18300
N790        N  0.33252979  0.32427729  0.53463856     0.75900
H791        H  0.38760181  0.30988948  0.52793486     0.09800
C792        C  0.43581074  0.29140784  0.03170438     0.03500
C793        C  0.46509753  0.27621070  0.47077377    -0.05200
C794        C  0.48308717  0.28135982  0.00828090    -0.23600
C795        C  0.46941922  0.26469486  0.98552926     0.12700
C796        C  0.43899325  0.26246710  0.98576846    -0.12800
N797        N  0.41938463  0.30620111  0.05485578     0.64400
H798        H  0.47774902  0.28151565  0.45092472     0.12300
N799        N  0.48582084  0.24929543  0.96270252     0.61100
H800        H  0.42834475  0.24979129  0.96841471     0.08400
O801        O  0.33622168  0.32349043  0.56273082    -0.40400
O802        O  0.32218591  0.34707696  0.52275899    -0.39600
O803        O  0.38337372  0.28867050  0.92923124    -0.39600
O804        O  0.40724172  0.31731601  0.95947962    -0.37300
O805        O  0.50849537  0.23513901  0.96963044    -0.38200
O806        O  0.47520742  0.24582977  0.93680041    -0.34300
O807        O  0.40151585  0.30364843  0.43979847    -0.35700
O808        O  0.39982575  0.32449654  0.04800499    -0.40000
C809        C  0.51100795  0.27729314  0.50078283     0.80800
N810        N  0.52924560  0.29081154  0.98107458    -0.77500
C811        C  0.55708432  0.30065942  0.98059455     0.83300
N812        N  0.56956467  0.30891250  0.00690207    -0.77400
C813        C  0.55130124  0.29263311  0.52952720     0.83400
N814        N  0.52296185  0.28451775  0.52783513    -0.79100
O815        O  0.67664676  0.36943140  0.78426430    -0.81200
C816        C  0.79299881  0.35110141  0.75484025     0.98200
O817        O  0.77787363  0.35926159  0.77710967    -0.70300
O818        O  0.73412093  0.38221733  0.80620268    -0.73900
Al819      Al  0.73983372  0.34634638  0.78552929     1.49000
C820        C  0.72885619  0.40793692  0.79773125     0.93400
O821        O  0.71080554  0.40469852  0.71451114    -0.80100
O822        O  0.70648624  0.34443806  0.69424345    -0.73700
Al823      Al  0.69670246  0.38437687  0.74932513     1.90100
O824        O  0.75163079  0.38214595  0.70286972    -0.72700
O825        O  0.73360484  0.30508144  0.72665872    -0.72600
O826        O  0.78076619  0.34149404  0.73145681    -0.78200
O827        O  0.74878862  0.30743159  0.77304505    -0.76400
O828        O  0.72603116  0.35845342  0.75044105    -1.12600
O829        O  0.70367272  0.33215164  0.79774186    -0.71800
C830        C  0.68037672  0.34667063  0.79991286     0.98900
C831        C  0.73467825  0.40380108  0.70018494     0.95300
Al832      Al  0.74174102  0.34449820  0.71661214     1.55600
O833        O  0.71702222  0.41257839  0.77269329    -0.76400
C834        C  0.74196699  0.29248708  0.75027682     0.99500
C835        C  0.67993561  0.34799948  0.70068715     0.94400
O836        O  0.67267634  0.35966495  0.72547453    -0.81700
C837        C  0.78617851  0.58337049  0.50216191     0.80800
N838        N  0.76945002  0.56532080  0.97486346    -0.77500
C839        C  0.76147369  0.53688648  0.97522892     0.83300
N840        N  0.76586569  0.52792861  0.50273160    -0.77400
C841        C  0.77331873  0.54082966  0.52913885     0.83400
N842        N  0.78333484  0.56878827  0.52870588    -0.79100
C843        C  0.81170670  0.08432789  0.74286975     0.80800
N844        N  0.81750486  0.07254142  0.71538490    -0.77500
C845        C  0.82788071  0.04483558  0.71276386     0.83300
N846        N  0.83188155  0.02865124  0.73790339    -0.77400
C847        C  0.82576767  0.03984115  0.76561199     0.83400
N848        N  0.81559399  0.06779531  0.76785108    -0.79100
O849        O  0.86143394  0.91699192  0.51152886    -0.81200
C850        C  0.82922038  0.79915478  0.49196054     0.98200
O851        O  0.82490550  0.81425810  0.51537925    -0.70300
O852        O  0.87126999  0.83652847  0.53862014    -0.73900
Al853      Al  0.83528989  0.85274216  0.52702605     1.49000
C854        C  0.89546797  0.84912014  0.53903488     0.93400
O855        O  0.89857536  0.85207236  0.96647225    -0.80100
O856        O  0.82346942  0.88581199  0.94554797    -0.73700
Al857      Al  0.87997244  0.88683767  0.48889573     1.90100
O858        O  0.86322977  0.84151846  0.93540184    -0.72700
O859        O  0.78959715  0.85077203  0.97480606    -0.72600
O860        O  0.83064490  0.80652650  0.96725906    -0.78200
O861        O  0.79750170  0.86725054  0.52006943    -0.76400
O862        O  0.84888279  0.86360049  0.49115869    -1.12600
O863        O  0.84246619  0.88911312  0.54646648    -0.71800
C864        C  0.84902069  0.91407408  0.53670525     0.98900
C865        C  0.89002501  0.84145447  0.94187509     0.95300
Al866      Al  0.82825019  0.84700091  0.95855136     1.55600
O867        O  0.89943093  0.87179338  0.52357053    -0.76400
C868        C  0.78180802  0.86270194  0.49750470     0.99500
C869        C  0.84309307  0.90453662  0.94221748     0.94400
O870        O  0.86681750  0.90194844  0.95614730    -0.81700
C871        C  0.06458329  0.78475462  0.74114709     0.80800
N872        N  0.05068689  0.78909752  0.71449965    -0.77500
C873        C  0.02154341  0.79433220  0.71368616     0.83300
N874        N  0.00647281  0.79547863  0.73995272    -0.77400
C875        C  0.01971001  0.79138167  0.76669905     0.83400
N876        N  0.04887621  0.78624714  0.76724555    -0.79100
C877        C  0.28400733  0.06058845  0.75916475     0.80800
N878        N  0.28104576  0.07698804  0.73395476    -0.77500
C879        C  0.27030207  0.10469668  0.73573661     0.83300
N880        N  0.26231975  0.11562728  0.76305088    -0.77400
C881        C  0.26482233  0.09948086  0.78846906     0.83400
N882        N  0.27575276  0.07190300  0.78627447    -0.79100
O883        O  0.18257624  0.27197288  0.97578751    -0.81200
C884        C  0.29265999  0.28705734  0.50071229     0.98200
O885        O  0.28285251  0.27443608  0.98410193    -0.70300
O886        O  0.23841274  0.25416413  0.95537308    -0.73900
Al887      Al  0.24634348  0.29036219  0.97477317     1.49000
C888        C  0.23213608  0.22920216  0.96525042     0.93400
O889        O  0.21134914  0.23842202  0.54595048    -0.80100
O890        O  0.20727773  0.30166048  0.56357966    -0.73700
Al891      Al  0.19713374  0.25792622  0.51092590     1.90100
O892        O  0.25153310  0.26111684  0.55704131    -0.72700
O893        O  0.23576428  0.33760408  0.52929115    -0.72600
O894        O  0.28140239  0.29782560  0.52445466    -0.78200
O895        O  0.25849974  0.32864714  0.98551149    -0.76400
O896        O  0.22623003  0.28341267  0.50813623    -1.12600
O897        O  0.21125736  0.30742746  0.96179367    -0.71800
C898        C  0.18730102  0.29442066  0.96000863     0.98900
C899        C  0.23464163  0.23987112  0.56074649     0.95300
Al900      Al  0.24259842  0.29824636  0.54088449     1.55600
O901        O  0.21990410  0.22649008  0.99054226    -0.76400
C902        C  0.24487583  0.34876921  0.50525701     0.99500
C903        C  0.18080507  0.29775227  0.55732235     0.94400
O904        O  0.17360951  0.28345978  0.53430509    -0.81700
C905        C  0.01234352  0.34795390  0.76220501     0.80800
N906        N  0.02698546  0.34148550  0.78783193    -0.77500
C907        C  0.05594817  0.33551228  0.78689920     0.83300
N908        N  0.07037655  0.33643106  0.76024030    -0.77400
C909        C  0.05627626  0.34336598  0.73451854     0.83400
N910        N  0.02716085  0.34864531  0.73563899    -0.79100
C911        C  0.31908951  0.55442463  0.50359454     0.80800
N912        N  0.33527300  0.56536278  0.97754624    -0.77500
C913        C  0.34301209  0.59394217  0.97758694     0.83300
N914        N  0.33582171  0.61099238  0.50309749    -0.77400
C915        C  0.33209638  0.59734205  0.52989093     0.83400
N916        N  0.32375857  0.56893009  0.52988940    -0.79100
O917        O  0.36723021  0.72958562  0.73074392    -0.81200
C918        C  0.32844309  0.84504525  0.75796727     0.98200
O919        O  0.32434623  0.83076775  0.73406661    -0.70300
O920        O  0.37240708  0.81186349  0.70916844    -0.73900
Al921      Al  0.33728508  0.79349471  0.72016952     1.49000
C922        C  0.39744219  0.80043008  0.70841359     0.93400
O923        O  0.40392796  0.78547239  0.78089586    -0.80100
O924        O  0.32832635  0.75277320  0.80144697    -0.73700
Al925      Al  0.38356012  0.75891573  0.75590097     1.90100
O926        O  0.36841595  0.79499097  0.81272541    -0.72700
O927        O  0.29530227  0.79097790  0.77402411    -0.72600
O928        O  0.33715169  0.83244852  0.78146006    -0.78200
O929        O  0.30022926  0.77666224  0.72718702    -0.76400
O930        O  0.35154477  0.78138481  0.75517770    -1.12600
O931        O  0.34699895  0.75908629  0.69821358    -0.71800
C932        C  0.35571965  0.73391691  0.70545890     0.98900
C933        C  0.39511982  0.79500466  0.80601128     0.95300
Al934      Al  0.33384139  0.79187889  0.78945110     1.55600
O935        O  0.40262897  0.77720819  0.72270744    -0.76400
C936        C  0.28432007  0.78169389  0.74988159     0.99500
C937        C  0.34792873  0.73355373  0.80403606     0.94400
O938        O  0.37154505  0.73579290  0.78950321    -0.81700
C939        C  0.56322580  0.85816349  0.50463800     0.80800
N940        N  0.54888828  0.85763250  0.53144614    -0.77500
C941        C  0.51953145  0.85484534  0.53254751     0.83300
N942        N  0.50461606  0.85237489  0.50640890    -0.77400
C943        C  0.51890677  0.85994840  0.97764060     0.83400
N944        N  0.54819556  0.86306859  0.97814353    -0.79100
C945        C  0.45968372  0.83050884  0.84410392    -0.13700
C946        C  0.45531573  0.82152177  0.87394903     0.16700
C947        C  0.43190633  0.80290780  0.88094969     0.02900
C948        C  0.41227053  0.79522116  0.85839221    -0.12200
C949        C  0.41610979  0.80476916  0.82874027    -0.03300
C950        C  0.44021685  0.82228470  0.82140537     0.02200
C951        C  0.47298247  0.83427672  0.89834927     0.09000
N952        N  0.42811564  0.79138694  0.91073566     0.65400
H953        H  0.39428165  0.78096080  0.86383970     0.18300
N954        N  0.44406921  0.83336615  0.79157701     0.75900
H955        H  0.47741099  0.84510918  0.83875443     0.09800
C956        C  0.50305626  0.82878694  0.90063721     0.03500
C957        C  0.51824919  0.83923633  0.92568134    -0.05200
C958        C  0.50373103  0.85472205  0.94884963    -0.23600
C959        C  0.47391695  0.86167439  0.94552728     0.12700
C960        C  0.45886994  0.85129237  0.92045386    -0.12800
N961        N  0.51785210  0.81063724  0.87905695     0.64400
H962        H  0.54104068  0.83345869  0.92793285     0.12300
N963        N  0.45867119  0.87929138  0.96734234     0.61100
H964        H  0.43584576  0.85621972  0.91834104     0.08400
O965        O  0.46795936  0.82955628  0.77788210    -0.40400
O966        O  0.42429587  0.84864703  0.77965055    -0.39600
O967        O  0.40288187  0.78797742  0.92148957    -0.39600
O968        O  0.44980172  0.78211821  0.92528963    -0.37300
O969        O  0.46620835  0.89725456  0.47830358    -0.38200
O970        O  0.43486703  0.87068217  0.97835175    -0.34300
O971        O  0.53751755  0.82123678  0.86256424    -0.35700
O972        O  0.51355904  0.78342047  0.87880331    -0.40000
C973        C  0.43687011  0.85020590  0.65393614    -0.13700
C974        C  0.45939097  0.83170400  0.64409628     0.16700
C975        C  0.46378176  0.80460117  0.65810881     0.02900
C976        C  0.44423554  0.79538688  0.68028394    -0.12200
C977        C  0.42044685  0.81312820  0.68908229    -0.03300
C978        C  0.41769099  0.84146274  0.67668279     0.02200
C979        C  0.47476012  0.83873325  0.61597437     0.09000
N980        N  0.48688416  0.78550078  0.64856506     0.65400
H981        H  0.44701452  0.77372436  0.68964228     0.18300
N982        N  0.39557696  0.86152895  0.68678056     0.75900
H983        H  0.43374589  0.87124740  0.64327433     0.09800
C984        C  0.46192002  0.83183914  0.58828456     0.03500
C985        C  0.47648491  0.83811014  0.56153364    -0.05200
C986        C  0.50403110  0.85130915  0.56170578    -0.23600
C987        C  0.51665786  0.85877223  0.58973504     0.12700
C988        C  0.50199413  0.85215327  0.61660332    -0.12800
N989        N  0.43433754  0.81765137  0.58712695     0.64400
H990        H  0.46632277  0.83188740  0.54054638     0.12300
N991        N  0.54387443  0.87364291  0.59137771     0.61100
H992        H  0.51171147  0.85777155  0.63800460     0.08400
O993        O  0.38003979  0.87490053  0.66790421    -0.40400
O994        O  0.39443488  0.86899278  0.71414863    -0.39600
O995        O  0.51286147  0.79127126  0.65529758    -0.39600
O996        O  0.48138315  0.76292320  0.63325589    -0.37300
O997        O  0.54558464  0.89985149  0.58286323    -0.38200
O998        O  0.56508535  0.86198739  0.60481873    -0.34300
O999        O  0.41115480  0.83264511  0.58734215    -0.35700
O1000       O  0.43318950  0.79026520  0.58386833    -0.40000
C1001       C  0.33196869  0.62047508  0.89698148    -0.13700
C1002       C  0.34563831  0.64767519  0.89827826     0.16700
C1003       C  0.35948422  0.65645941  0.92485732     0.02900
C1004       C  0.35908498  0.63825218  0.94997082    -0.12200
C1005       C  0.34474439  0.61115447  0.94931214    -0.03300
C1006       C  0.33135473  0.60216970  0.92218460     0.02200
C1007       C  0.34450572  0.66738762  0.87219166     0.09000
N1008       N  0.37346830  0.68419720  0.92680527     0.65400
H1009       H  0.36974662  0.64570641  0.97025590     0.18300
N1010       N  0.31587621  0.57528922  0.92014693     0.75900
H1011       H  0.32117810  0.61372209  0.87650173     0.09800
C1012       C  0.36623636  0.66649859  0.84986335     0.03500
C1013       C  0.36605521  0.68724502  0.82686137    -0.05200
C1014       C  0.34433274  0.70913249  0.82565179    -0.23600
C1015       C  0.32157987  0.70887278  0.84737466     0.12700
C1016       C  0.32213751  0.68825478  0.87055603    -0.12800
N1017       N  0.38917815  0.64524731  0.85093986     0.64400
H1018       H  0.38361659  0.68675134  0.81047205     0.12300
N1019       N  0.29826404  0.72982289  0.84689413     0.61100
H1020       H  0.30520289  0.68875082  0.88765137     0.08400
O1021       O  0.32810740  0.55307616  0.90859382    -0.40400
O1022       O  0.28887026  0.57497665  0.92548799    -0.39600
O1023       O  0.35940402  0.70625686  0.93624207    -0.39600
O1024       O  0.40058201  0.68592100  0.92259250    -0.37300
O1025       O  0.27915705  0.72833125  0.82666997    -0.38200
O1026       O  0.29453410  0.74715087  0.86880653    -0.34300
O1027       O  0.38810106  0.62269864  0.83452017    -0.35700
O1028       O  0.41186265  0.65044843  0.86582899    -0.40000
C1029       C  0.36776778  0.66467367  0.65883079    -0.13700
C1030       C  0.34569005  0.66783237  0.63741482     0.16700
C1031       C  0.32582298  0.69137296  0.63987631     0.02900
C1032       C  0.32937626  0.71223628  0.66257864    -0.12200
C1033       C  0.35209583  0.70989334  0.68344060    -0.03300
C1034       C  0.37119308  0.68556675  0.68177568     0.02200
C1035       C  0.34532261  0.64853094  0.61064889     0.09000
N1036       N  0.30206105  0.69440093  0.61933381     0.65400
H1037       H  0.31413174  0.73042778  0.66395084     0.18300
N1038       N  0.39537683  0.68293445  0.70168110     0.75900
H1039       H  0.38327711  0.64677299  0.65677248     0.09800
C1040       C  0.35285134  0.65948254  0.58213752     0.03500
C1041       C  0.34832854  0.64230803  0.55651045    -0.05200
C1042       C  0.33660776  0.61400783  0.55845265    -0.23600
C1043       C  0.32975330  0.60285457  0.58741171     0.12700
C1044       C  0.33446702  0.62016687  0.61310263    -0.12800
N1045       N  0.36511828  0.68804686  0.57890166     0.64400
H1046       H  0.35433778  0.65132140  0.53488529     0.12300
N1047       N  0.31683630  0.57474197  0.59135732     0.61100
H1048       H  0.32827100  0.61195665  0.63503617     0.08400
O1049       O  0.41723813  0.69914152  0.69828324    -0.40400
O1050       O  0.39620983  0.66246896  0.72057317    -0.39600
O1051       O  0.28440085  0.67368041  0.61586689    -0.39600
O1052       O  0.29676067  0.71879315  0.60731273    -0.37300
O1053       O  0.32801660  0.55691014  0.60961199    -0.38200
O1054       O  0.29128640  0.57041278  0.58214812    -0.34300
O1055       O  0.38718499  0.69513033  0.59397989    -0.35700
O1056       O  0.35581973  0.70509786  0.55883278    -0.40000
C1057       C  0.30292366  0.47613356  0.52618767    -0.13700
C1058       C  0.29581857  0.46404168  0.00351609     0.16700
C1059       C  0.28987199  0.48385241  0.98005605     0.02900
C1060       C  0.30330940  0.51126383  0.98014608    -0.12200
C1061       C  0.30802762  0.52418730  0.50368826    -0.03300
C1062       C  0.31621070  0.50363550  0.52587105     0.02200
C1063       C  0.28404277  0.43395527  0.00357796     0.09000
N1064       N  0.26967728  0.47687214  0.95655708     0.65400
H1065       H  0.29795518  0.52653678  0.96245925     0.18300
N1066       N  0.33897456  0.50957641  0.54701682     0.75900
H1067       H  0.30954036  0.46006571  0.54267935     0.09800
C1068       C  0.29078730  0.41376263  0.98036485     0.03500
C1069       C  0.27931880  0.38549801  0.98157448    -0.05200
C1070       C  0.25155819  0.38029669  0.50366975    -0.23600
C1071       C  0.23980898  0.40093370  0.52428479     0.12700
C1072       C  0.25001371  0.42972948  0.52423269    -0.12800
N1073       N  0.31024521  0.42112223  0.95620165     0.64400
H1074       H  0.28532610  0.37008598  0.96395503     0.12300
N1075       N  0.21725581  0.39315733  0.54498978     0.61100
H1076       H  0.24105924  0.44549664  0.54014403     0.08400
O1077       O  0.36237509  0.52113178  0.53823214    -0.40400
O1078       O  0.33763997  0.49923726  0.57325845    -0.39600
O1079       O  0.24591384  0.46453149  0.96272065    -0.39600
O1080       O  0.27419117  0.48562732  0.93005973    -0.37300
O1081       O  0.22128002  0.39574765  0.57293100    -0.38200
O1082       O  0.19230330  0.38681087  0.53533101    -0.34300
O1083       O  0.33438017  0.43293246  0.96173797    -0.35700
O1084       O  0.30486284  0.41285059  0.92968236    -0.40000
C1085       C  0.11729604  0.34339733  0.67631058    -0.13700
C1086       C  0.10199022  0.33839588  0.64958188     0.16700
C1087       C  0.07128115  0.33702378  0.65064430     0.02900
C1088       C  0.05683406  0.33930924  0.67849751    -0.12200
C1089       C  0.07225127  0.34381842  0.70535826    -0.03300
C1090       C  0.10286655  0.34697904  0.70389471     0.02200
C1091       C  0.11899811  0.33132259  0.62184868     0.09000
N1092       N  0.05454029  0.33326670  0.62376178     0.65400
H1093       H  0.03335387  0.33725440  0.67910794     0.18300
N1094       N  0.11965808  0.35436749  0.72993259     0.75900
H1095       H  0.14086534  0.34432706  0.67581687     0.09800
C1096       C  0.14331769  0.34816767  0.61315529     0.03500
C1097       C  0.16304324  0.33683788  0.59181700    -0.05200
C1098       C  0.15820509  0.30986240  0.57766917    -0.23600
C1099       C  0.13265399  0.29432085  0.58445086     0.12700
C1100       C  0.11368374  0.30480116  0.60684136    -0.12800
N1101       N  0.14832683  0.37657760  0.62596317     0.64400
H1102       H  0.18224997  0.34926857  0.58604795     0.12300
N1103       N  0.12687254  0.26673129  0.57057993     0.61100
H1104       H  0.09544709  0.29137187  0.61352943     0.08400
O1105       O  0.11316495  0.37688631  0.74519553    -0.40400
O1106       O  0.14339619  0.34121517  0.73493685    -0.39600
O1107       O  0.03312466  0.31615345  0.62352842    -0.39600
O1108       O  0.05981477  0.34856664  0.60084884    -0.37300
O1109       O  0.13266578  0.24339844  0.58439073    -0.38200
O1110       O  0.11217645  0.26574138  0.54671382    -0.34300
O1111       O  0.17390931  0.38478660  0.63155564    -0.35700
O1112       O  0.12743594  0.39440713  0.62950587    -0.40000
C1113       C  0.11153237  0.30477979  0.84104782    -0.13700
C1114       C  0.10555814  0.32158439  0.86678450     0.16700
C1115       C  0.08252325  0.34195187  0.86672046     0.02900
C1116       C  0.06576797  0.34539026  0.84078508    -0.12200
C1117       C  0.07194506  0.32890438  0.81471172    -0.03300
C1118       C  0.09483095  0.30800405  0.81503723     0.02200
C1119       C  0.12420570  0.31767576  0.89322857     0.09000
N1120       N  0.07664874  0.35993337  0.89246692     0.65400
H1121       H  0.04851891  0.36170791  0.84069467     0.18300
N1122       N  0.10083275  0.28938959  0.78958573     0.75900
H1123       H  0.12912307  0.28883037  0.84137002     0.09800
C1124       C  0.11798643  0.29618334  0.91468684     0.03500
C1125       C  0.13826237  0.28981309  0.93706057    -0.05200
C1126       C  0.16503917  0.30447517  0.93828297    -0.23600
C1127       C  0.17056280  0.32703950  0.91731442     0.12700
C1128       C  0.15012773  0.33335355  0.89504257    -0.12800
N1129       N  0.09175898  0.27970881  0.91307280     0.64400
H1130       H  0.13334097  0.27260012  0.95290176     0.12300
N1131       N  0.19731357  0.34277761  0.91726081     0.61100
H1132       H  0.15500299  0.34981982  0.87834544     0.08400
O1133       O  0.08043376  0.27562600  0.77712326    -0.40400
O1134       O  0.12681031  0.28390531  0.78185068    -0.39600
O1135       O  0.08683810  0.38543309  0.89379638    -0.39600
O1136       O  0.05864511  0.35167831  0.91214011    -0.37300
O1137       O  0.21825705  0.33410661  0.90090500    -0.38200
O1138       O  0.19872719  0.36722661  0.93043986    -0.34300
O1139       O  0.09187402  0.25510553  0.90008941    -0.35700
O1140       O  0.06966192  0.28785169  0.92799987    -0.40000
C1141       C  0.26304729  0.13003839  0.65431955    -0.13700
C1142       C  0.25905006  0.16022294  0.65834963     0.16700
C1143       C  0.25921345  0.17216802  0.68771370     0.02900
C1144       C  0.26366550  0.15365051  0.71229735    -0.12200
C1145       C  0.26718122  0.12324284  0.70849928    -0.03300
C1146       C  0.26701705  0.11150547  0.67896932     0.02200
C1147       C  0.25467931  0.17890257  0.63160942     0.09000
N1148       N  0.25405740  0.20280670  0.69304591     0.65400
H1149       H  0.26369256  0.16317443  0.73466878     0.18300
N1150       N  0.26982655  0.08078577  0.67354800     0.75900
H1151       H  0.26285065  0.12076843  0.63182119     0.09800
C1152       C  0.27432568  0.20128410  0.62405451     0.03500
C1153       C  0.26753586  0.22035922  0.60046462    -0.05200
C1154       C  0.24183659  0.21730167  0.58365104    -0.23600
C1155       C  0.22286939  0.19397589  0.59065867     0.12700
C1156       C  0.22939178  0.17530508  0.61461214    -0.12800
N1157       N  0.30110746  0.20495233  0.64012718     0.64400
H1158       H  0.28256757  0.23777812  0.59531310     0.12300
N1159       N  0.19668359  0.18906834  0.57416409     0.61100
H1160       H  0.21432407  0.15805563  0.62032051     0.08400
O1161       O  0.29342084  0.07040671  0.66324310    -0.40400
O1162       O  0.24764610  0.06476413  0.67504456    -0.39600
O1163       O  0.23342365  0.21587963  0.67999293    -0.39600
O1164       O  0.26803216  0.21609436  0.71322902    -0.37300
O1165       O  0.19819604  0.17971583  0.54742276    -0.38200
O1166       O  0.17251147  0.18889333  0.58781611    -0.34300
O1167       O  0.31663581  0.18301045  0.64665369    -0.35700
O1168       O  0.31052350  0.23026177  0.64564199    -0.40000
C1169       C  0.26428657  0.18294354  0.90283702    -0.13700
C1170       C  0.24280173  0.16178557  0.89933771     0.16700
C1171       C  0.21987042  0.16016583  0.92038160     0.02900
C1172       C  0.21773042  0.18104705  0.94358826    -0.12200
C1173       C  0.23822778  0.20357245  0.94580851    -0.03300
C1174       C  0.26242438  0.20358102  0.92600795     0.02200
C1175       C  0.24398696  0.14334301  0.87208278     0.09000
N1176       N  0.19780317  0.13856364  0.91734474     0.65400
H1177       H  0.19906162  0.18077117  0.95861277     0.18300
N1178       N  0.28530307  0.22439915  0.92923454     0.75900
H1179       H  0.28235536  0.18373854  0.88705197     0.09800
C1180       C  0.23521124  0.15495930  0.84441188     0.03500
C1181       C  0.24108559  0.13962811  0.81781915    -0.05200
C1182       C  0.25599248  0.11258052  0.81800338    -0.23600
C1183       C  0.26361504  0.10029101  0.84622439     0.12700
C1184       C  0.25771947  0.11596799  0.87287809    -0.12800
N1185       N  0.22170240  0.18317788  0.84293639     0.64400
H1186       H  0.23459911  0.14957958  0.79681497     0.12300
N1187       N  0.27837740  0.07271736  0.84844025     0.61100
H1188       H  0.26470613  0.10714864  0.89426003     0.08400
O1189       O  0.29304135  0.23967933  0.90707081    -0.40400
O1190       O  0.30063199  0.22425323  0.95268673    -0.39600
O1191       O  0.19782775  0.11658065  0.93435705    -0.39600
O1192       O  0.17664673  0.14295369  0.89993300    -0.37300
O1193       O  0.30228552  0.07121681  0.86221024    -0.38200
O1194       O  0.26469858  0.04948704  0.84297803    -0.34300
O1195       O  0.23670768  0.20527854  0.83648057    -0.35700
O1196       O  0.19446232  0.18569879  0.84586592    -0.40000
C1197       C  0.30643160  0.92181182  0.78158635    -0.13700
C1198       C  0.31332530  0.93772041  0.75564679     0.16700
C1199       C  0.32587098  0.92297287  0.73058272     0.02900
C1200       C  0.32945137  0.89263347  0.73176536    -0.12200
C1201       C  0.32287248  0.87679960  0.75775258    -0.03300
C1202       C  0.31106839  0.89163183  0.78295492     0.02200
C1203       C  0.30649984  0.96944226  0.75513773     0.09000
N1204       N  0.33577083  0.93856729  0.70451770     0.65400
H1205       H  0.33872836  0.88092580  0.71175042     0.18300
N1206       N  0.30200484  0.87604661  0.80915317     0.75900
H1207       H  0.29632349  0.93309438  0.80109052     0.09800
C1208       C  0.28885517  0.98223189  0.73270567     0.03500
C1209       C  0.28345799  0.01244234  0.73357677    -0.05200
C1210       C  0.29428929  0.02998096  0.75691065    -0.23600
C1211       C  0.31245001  0.01728935  0.77895336     0.12700
C1212       C  0.31814391  0.98715296  0.77783039    -0.12800
N1213       N  0.27521685  0.96487611  0.70978931     0.64400
H1214       H  0.26922712  0.02199061  0.71694175     0.12300
N1215       N  0.32601545  0.03460442  0.80197614     0.61100
H1216       H  0.33220321  0.97743438  0.79449171     0.08400
O1217       O  0.28127867  0.85818138  0.80751692    -0.40400
O1218       O  0.31254871  0.88237838  0.83449309    -0.39600
O1219       O  0.34933665  0.96228043  0.70745978    -0.39600
O1220       O  0.33392087  0.92706967  0.67869785    -0.37300
O1221       O  0.33179228  0.02342587  0.82717602    -0.38200
O1222       O  0.33592943  0.05955540  0.79588578    -0.34300
O1223       O  0.26305269  0.94111281  0.71646867    -0.35700
O1224       O  0.27252608  0.97477506  0.68348415    -0.40000
C1225       C  0.14274822  0.77311737  0.76786148    -0.13700
C1226       C  0.15864662  0.77923118  0.74165938     0.16700
C1227       C  0.14353516  0.78458341  0.71471173     0.02900
C1228       C  0.11299567  0.78502608  0.71487246    -0.12200
C1229       C  0.09689325  0.78070534  0.74156921    -0.03300
C1230       C  0.11231627  0.77394228  0.76816627     0.02200
C1231       C  0.19093137  0.78005921  0.74325313     0.09000
N1232       N  0.15879243  0.79087354  0.68732108     0.65400
H1233       H  0.10195308  0.79010531  0.69408063     0.18300
N1234       N  0.09765049  0.76745162  0.79570986     0.75900
H1235       H  0.15413019  0.76796149  0.78848844     0.09800
C1236       C  0.20488246  0.79751657  0.76502286     0.03500
C1237       C  0.23516366  0.79634838  0.76753271    -0.05200
C1238       C  0.25227727  0.77888287  0.74811321    -0.23600
C1239       C  0.23838290  0.76130323  0.72631990     0.12700
C1240       C  0.20787868  0.76208877  0.72414176    -0.12800
N1241       N  0.18870794  0.81742431  0.78394703     0.64400
H1242       H  0.24546168  0.81041941  0.78395193     0.12300
N1243       N  0.25470738  0.74189578  0.70702223     0.61100
H1244       H  0.19727014  0.74802875  0.70793295     0.08400
O1245       O  0.09575939  0.78680171  0.81600166    -0.40400
O1246       O  0.09281149  0.74112897  0.80225148    -0.39600
O1247       O  0.15297099  0.77692068  0.66355858    -0.39600
O1248       O  0.17641776  0.81186751  0.68624666    -0.37300
O1249       O  0.27228570  0.72361995  0.71816072    -0.38200
O1250       O  0.24920312  0.74070449  0.67925788    -0.34300
O1251       O  0.19418736  0.81907920  0.81169613    -0.35700
O1252       O  0.17090801  0.83530929  0.77252994    -0.40000
C1253       C  0.64255466  0.85183273  0.48057799    -0.13700
C1254       C  0.65649424  0.86655610  0.50411893     0.16700
C1255       C  0.63959743  0.87919036  0.52759992     0.02900
C1256       C  0.60928306  0.87562354  0.52750746    -0.12200
C1257       C  0.59534605  0.86062064  0.50403707    -0.03300
C1258       C  0.61198632  0.85513248  0.98164273     0.02200
C1259       C  0.68876180  0.86707975  0.50397152     0.09000
N1260       N  0.65269455  0.89608143  0.55121933     0.65400
H1261       H  0.59641818  0.88544453  0.54546728     0.18300
N1262       N  0.59969993  0.83770584  0.95815932     0.75900
H1263       H  0.65523411  0.84840281  0.96466627     0.09800
C1264       C  0.70543068  0.85574228  0.52800604     0.03500
C1265       C  0.73591590  0.85634847  0.52612182    -0.05200
C1266       C  0.75004599  0.86663761  0.50025316    -0.23600
C1267       C  0.73310767  0.88147014  0.97903140     0.12700
C1268       C  0.70284318  0.88403987  0.98117733    -0.12800
N1269       N  0.69194993  0.84216392  0.55356856     0.64400
H1270       H  0.74866644  0.84698374  0.54416253     0.12300
N1271       N  0.74777448  0.89283210  0.95319807     0.61100
H1272       H  0.69093388  0.89401604  0.96287028     0.08400
O1273       O  0.58813316  0.81353191  0.96438826    -0.40400
O1274       O  0.60396339  0.84442275  0.93099566    -0.39600
O1275       O  0.67276086  0.91387247  0.54528017    -0.39600
O1276       O  0.64243642  0.89527511  0.57762228    -0.37300
O1277       O  0.74267524  0.88244125  0.92742451    -0.38200
O1278       O  0.76323883  0.91537493  0.95571780    -0.34300
O1279       O  0.67146434  0.82428592  0.54994337    -0.35700
O1280       O  0.70276852  0.84525569  0.57942261    -0.40000
C1281       C  0.93586722  0.80397569  0.59686153    -0.13700
C1282       C  0.95681548  0.82398357  0.60649928     0.16700
C1283       C  0.95992765  0.85069387  0.59132138     0.02900
C1284       C  0.94104198  0.85758102  0.56772582    -0.12200
C1285       C  0.91864735  0.83842732  0.55935467    -0.03300
C1286       C  0.91699779  0.81073262  0.57328239     0.02200
C1287       C  0.97385473  0.81717210  0.63367600     0.09000
N1288       N  0.98060930  0.87190494  0.60111267     0.65400
H1289       H  0.94269917  0.87888684  0.55734471     0.18300
N1290       N  0.89627804  0.78932234  0.56391227     0.75900
H1291       H  0.93393593  0.78309008  0.60808147     0.09800
C1292       C  0.95966683  0.81417307  0.66157682     0.03500
C1293       C  0.97558424  0.80568383  0.68672741    -0.05200
C1294       C  0.00588663  0.80069951  0.68511614    -0.23600
C1295       C  0.02006116  0.80374496  0.65687475     0.12700
C1296       C  0.00393129  0.81209784  0.63154192    -0.12800
N1297       N  0.92918056  0.82055089  0.66486049     0.64400
H1298       H  0.96398762  0.80382453  0.70791233     0.12300
N1299       N  0.05055204  0.79811709  0.65325730     0.61100
H1300       H  0.01481362  0.81404250  0.60994487     0.08400
O1301       O  0.87957945  0.77770448  0.58298162    -0.40400
O1302       O  0.89649629  0.78004135  0.53710521    -0.39600
O1303       O  0.99882655  0.88211807  0.58268044    -0.39600
O1304       O  0.97873764  0.88266992  0.62727499    -0.37300
O1305       O  0.05982773  0.77206312  0.65272213    -0.38200
O1306       O  0.06721041  0.81847228  0.64522000    -0.34300
O1307       O  0.91272211  0.80275823  0.67813883    -0.35700
O1308       O  0.91910572  0.84500016  0.65670676    -0.40000
C1309       C  0.99047868  0.78556261  0.84706043    -0.13700
C1310       C  0.96851661  0.80698454  0.84659864     0.16700
C1311       C  0.96367513  0.82314953  0.82021593     0.02900
C1312       C  0.98041773  0.81711581  0.79456232    -0.12200
C1313       C  0.00243343  0.79557593  0.79466578    -0.03300
C1314       C  0.00732605  0.77934347  0.82122637     0.02200
C1315       C  0.94962594  0.81150206  0.87322180     0.09000
N1316       N  0.94225503  0.84615680  0.81936686     0.65400
H1317       H  0.97668853  0.83003998  0.77456431     0.18300
N1318       N  0.02773886  0.75541625  0.82188992     0.75900
H1319       H  0.99366208  0.77283191  0.86727982     0.09800
C1320       C  0.92020366  0.80314860  0.87268358     0.03500
C1321       C  0.90134278  0.81251767  0.89567009    -0.05200
C1322       C  0.91140935  0.82971441  0.91969695    -0.23600
C1323       C  0.94135087  0.83672935  0.92086623     0.12700
C1324       C  0.96010080  0.82764208  0.89762426    -0.12800
N1325       N  0.90921135  0.78544695  0.84870565     0.64400
H1326       H  0.87863020  0.80640322  0.89457782     0.12300
N1327       N  0.95275690  0.85462566  0.94438042     0.61100
H1328       H  0.98266998  0.83436131  0.89792236     0.08400
O1329       O  0.02853395  0.73706516  0.80056692    -0.40400
O1330       O  0.04149295  0.74989456  0.84572471    -0.39600
O1331       O  0.94250542  0.86633115  0.83886567    -0.39600
O1332       O  0.92517066  0.84813754  0.79732735    -0.37300
O1333       O  0.96352381  0.84289724  0.96744835    -0.38200
O1334       O  0.95506290  0.88183185  0.94060565    -0.34300
O1335       O  0.91956738  0.76013190  0.84424797    -0.35700
O1336       O  0.88710653  0.79369711  0.83421616    -0.40000
C1337       C  0.81483252  0.96365615  0.59555608    -0.13700
C1338       C  0.83666978  0.98456375  0.59910955     0.16700
C1339       C  0.86109050  0.98401751  0.57973707     0.02900
C1340       C  0.86406706  0.96166117  0.55825329    -0.12200
C1341       C  0.84301140  0.93979456  0.55585805    -0.03300
C1342       C  0.81774972  0.94138606  0.57406550     0.02200
C1343       C  0.83614413  0.00306418  0.62644698     0.09000
N1344       N  0.88346873  0.00541900  0.58249079     0.65400
H1345       H  0.88348086  0.96068932  0.54427805     0.18300
N1346       N  0.79512696  0.92026882  0.57127617     0.75900
H1347       H  0.79608829  0.96381519  0.61050240     0.09800
C1348       C  0.81364044  0.02340881  0.63214501     0.03500
C1349       C  0.81206446  0.03761697  0.66008499    -0.05200
C1350       C  0.83253914  0.03168760  0.68268300    -0.23600
C1351       C  0.85564405  0.01177921  0.67665727     0.12700
C1352       C  0.85697754  0.99759884  0.64864399    -0.12800
N1353       N  0.79208124  0.02948172  0.60992052     0.64400
H1354       H  0.79421891  0.05274949  0.66443554     0.12300
N1355       N  0.87802437  0.00594791  0.69834615     0.61100
H1356       H  0.87420558  0.98177972  0.64421060     0.08400
O1357       O  0.77720667  0.92218322  0.54996641    -0.40400
O1358       O  0.79089263  0.90200628  0.59198759    -0.39600
O1359       O  0.90958031  0.99750805  0.58620499    -0.39600
O1360       O  0.87740466  0.03220541  0.57951190    -0.37300
O1361       O  0.88977729  0.98092505  0.69951982    -0.38200
O1362       O  0.88886840  0.02661221  0.71339123    -0.34300
O1363       O  0.76581297  0.02307663  0.61480174    -0.35700
O1364       O  0.79878517  0.04379357  0.58673991    -0.40000
C1365       C  0.85373981  0.97322897  0.89526780    -0.13700
C1366       C  0.83208095  0.96951381  0.87353741     0.16700
C1367       C  0.81292786  0.94577478  0.87583483     0.02900
C1368       C  0.81633443  0.92556862  0.89898936    -0.12200
C1369       C  0.83862226  0.92848727  0.92030214    -0.03300
C1370       C  0.85712047  0.95301865  0.91863609     0.02200
C1371       C  0.83176979  0.98821993  0.84652762     0.09000
N1372       N  0.79030474  0.94159212  0.85429407     0.65400
H1373       H  0.80179868  0.90704566  0.89973984     0.18300
N1374       N  0.87971839  0.95747689  0.94008498     0.75900
H1375       H  0.86867584  0.99136510  0.89350696     0.09800
C1376       C  0.82498418  0.01818593  0.84806745     0.03500
C1377       C  0.82371632  0.03459777  0.82158020    -0.05200
C1378       C  0.82897728  0.02160430  0.79315882    -0.23600
C1379       C  0.83685612  0.99150107  0.79202629     0.12700
C1380       C  0.83829901  0.97539371  0.81862881    -0.12800
N1381       N  0.81836617  0.03198806  0.87624767     0.64400
H1382       H  0.81797220  0.05756417  0.82338675     0.12300
N1383       N  0.84303197  0.97652444  0.76431655     0.61100
H1384       H  0.84402274  0.95236124  0.81744708     0.08400
O1385       O  0.90587664  0.95227905  0.93288048    -0.40400
O1386       O  0.87387680  0.96935507  0.96512103    -0.39600
O1387       O  0.79003034  0.91877250  0.83820444    -0.39600
O1388       O  0.76942627  0.95963360  0.85290813    -0.37300
O1389       O  0.82235279  0.96993151  0.74705815    -0.38200
O1390       O  0.86738298  0.96393544  0.76078460    -0.34300
O1391       O  0.83547368  0.05072716  0.88699533    -0.35700
O1392       O  0.79402714  0.02781736  0.88874799    -0.40000
C1393       C  0.81513618  0.65902957  0.52263984    -0.13700
C1394       C  0.80668682  0.67508126  0.49729564     0.16700
C1395       C  0.77553330  0.65832134  0.97545635     0.02900
C1396       C  0.77073641  0.62823834  0.97675939    -0.12200
C1397       C  0.79536656  0.61447536  0.50090776    -0.03300
C1398       C  0.80983994  0.62892157  0.52474664     0.02200
C1399       C  0.81271787  0.70683263  0.49614446     0.09000
N1400       N  0.76097123  0.67526868  0.95300670     0.65400
H1401       H  0.75624025  0.61845361  0.96047575     0.18300
N1402       N  0.82030625  0.61352755  0.55061748     0.75900
H1403       H  0.82649858  0.66998035  0.54072943     0.09800
C1404       C  0.80316034  0.72582267  0.51932845     0.03500
C1405       C  0.80978944  0.75553740  0.51790981    -0.05200
C1406       C  0.82529984  0.76708442  0.49340496    -0.23600
C1407       C  0.82120847  0.74373952  0.96708793     0.12700
C1408       C  0.81316554  0.71432739  0.96893022    -0.12800
N1409       N  0.78574721  0.71547468  0.54386037     0.64400
H1410       H  0.80165973  0.76985272  0.53563070     0.12300
N1411       N  0.83477122  0.75381933  0.94003985     0.61100
H1412       H  0.81737788  0.69995374  0.94988922     0.08400
O1413       O  0.83577943  0.59079192  0.54721064    -0.40400
O1414       O  0.81893900  0.62554487  0.57624099    -0.39600
O1415       O  0.76263560  0.66779337  0.92566849    -0.39600
O1416       O  0.74437700  0.69617605  0.96072012    -0.37300
O1417       O  0.86154545  0.75979936  0.93991632    -0.38200
O1418       O  0.82114836  0.75280855  0.91549544    -0.34300
O1419       O  0.79252035  0.72170901  0.57060000    -0.35700
O1420       O  0.76230806  0.70216588  0.53878826    -0.40000
C1421       C  0.87349920  0.34024085  0.73711386    -0.13700
C1422       C  0.88647498  0.35388838  0.76188270     0.16700
C1423       C  0.86865515  0.36719476  0.78421311     0.02900
C1424       C  0.83827567  0.36573388  0.78150022    -0.12200
C1425       C  0.82522614  0.35204768  0.75661371    -0.03300
C1426       C  0.84330420  0.33922005  0.73423112     0.02200
C1427       C  0.91867850  0.35351714  0.76354212     0.09000
N1428       N  0.88089467  0.38270011  0.80929113     0.65400
H1429       H  0.82478155  0.37599413  0.79870507     0.18300
N1430       N  0.83150115  0.32451706  0.70866705     0.75900
H1431       H  0.88701147  0.32985530  0.71997721     0.09800
C1432       C  0.93387437  0.34141988  0.78813928     0.03500
C1433       C  0.96441719  0.34142208  0.78784921    -0.05200
C1434       C  0.98023217  0.35213757  0.76307571    -0.23600
C1435       C  0.96478146  0.36448537  0.73876288     0.12700
C1436       C  0.93438649  0.36500554  0.73927959    -0.12800
N1437       N  0.91884269  0.32785022  0.81277574     0.64400
H1438       H  0.97579660  0.33143502  0.80647803     0.12300
N1439       N  0.97946050  0.37682521  0.71341824     0.61100
H1440       H  0.92285751  0.37459345  0.72049715     0.08400
O1441       O  0.82458729  0.29794206  0.71052046    -0.40400
O1442       O  0.83145253  0.33692602  0.68338706    -0.39600
O1443       O  0.90221834  0.39953221  0.80545752    -0.39600
O1444       O  0.86872831  0.38175272  0.83481762    -0.37300
O1445       O  0.97546177  0.36637903  0.68744148    -0.38200
O1446       O  0.99341609  0.40029640  0.71642822    -0.34300
O1447       O  0.89800847  0.31068561  0.80785382    -0.35700
O1448       O  0.92839116  0.33041557  0.83922693    -0.40000
C1449       C  0.79332581  0.16344513  0.72577006    -0.13700
C1450       C  0.77377798  0.17032788  0.74909955     0.16700
C1451       C  0.76660555  0.14885568  0.77056697     0.02900
C1452       C  0.78013940  0.12126636  0.76877648    -0.12200
C1453       C  0.79980091  0.11438168  0.74538118    -0.03300
C1454       C  0.80640635  0.13586154  0.72374532     0.02200
C1455       C  0.76287470  0.20075850  0.75133419     0.09000
N1456       N  0.74514133  0.15443110  0.79359696     0.65400
H1457       H  0.77434212  0.10471270  0.78504283     0.18300
N1458       N  0.82731697  0.13049573  0.70033245     0.75900
H1459       H  0.79920362  0.17999462  0.70950488     0.09800
C1460       C  0.76909322  0.21868683  0.77637592     0.03500
C1461       C  0.76000997  0.24797868  0.77631760    -0.05200
C1462       C  0.74584329  0.26023174  0.75129598    -0.23600
C1463       C  0.73871391  0.24179725  0.72684672     0.12700
C1464       C  0.74741414  0.21241544  0.72707919    -0.12800
N1465       N  0.78625260  0.20816029  0.80101895     0.64400
H1466       H  0.76585809  0.26166882  0.79527313     0.12300
N1467       N  0.72319336  0.25250539  0.70134879     0.61100
H1468       H  0.74232862  0.19857019  0.70797556     0.08400
O1469       O  0.85398854  0.12832665  0.70665754    -0.40400
O1470       O  0.81961290  0.13143771  0.67315091    -0.39600
O1471       O  0.72168947  0.16756406  0.78731379    -0.39600
O1472       O  0.74821880  0.14368068  0.81949089    -0.37300
O1473       O  0.69729403  0.26152543  0.70445406    -0.38200
O1474       O  0.73364330  0.24872807  0.67527585    -0.34300
O1475       O  0.81005885  0.19494833  0.79604748    -0.35700
O1476       O  0.77956568  0.21527852  0.82767886    -0.40000
C1477       C  0.76965313  0.51773500  0.61216978    -0.13700
C1478       C  0.76306126  0.48806746  0.60894001     0.16700
C1479       C  0.76074482  0.47585675  0.57999191     0.02900
C1480       C  0.76480984  0.49346442  0.55480029    -0.12200
C1481       C  0.77054013  0.52362087  0.55751122    -0.03300
C1482       C  0.77330129  0.53572348  0.58686840     0.02200
C1483       C  0.75807521  0.46978822  0.63574967     0.09000
N1484       N  0.75339272  0.44572082  0.57582220     0.65400
H1485       H  0.76277541  0.48327993  0.53286258     0.18300
N1486       N  0.77909911  0.56607947  0.59173704     0.75900
H1487       H  0.77142911  0.52708387  0.63453913     0.09800
C1488       C  0.77826125  0.44797587  0.64401405     0.03500
C1489       C  0.77034668  0.42710956  0.66544850    -0.05200
C1490       C  0.74269261  0.42776857  0.67929304    -0.23600
C1491       C  0.72308572  0.45063333  0.67183279     0.12700
C1492       C  0.73092725  0.47127839  0.65016713    -0.12800
N1493       N  0.80666064  0.44657937  0.63048278     0.64400
H1494       H  0.78597450  0.41018102  0.67114583     0.12300
N1495       N  0.69461790  0.45248845  0.68486942     0.61100
H1496       H  0.71521284  0.48781504  0.64356231     0.08400
O1497       O  0.76053336  0.58501335  0.58390962    -0.40400
O1498       O  0.79905273  0.57337303  0.60960682    -0.39600
O1499       O  0.72936224  0.43630392  0.58549716    -0.39600
O1500       O  0.76924766  0.42940610  0.55947675    -0.37300
O1501       O  0.67317245  0.44209143  0.67094054    -0.38200
O1502       O  0.69037874  0.46775866  0.70824340    -0.34300
O1503       O  0.82251873  0.46897912  0.63014622    -0.35700
O1504       O  0.81699898  0.42241427  0.62140661    -0.40000
C1505       C  0.74070752  0.47837009  0.91819137    -0.13700
C1506       C  0.75137179  0.49048990  0.89148512     0.16700
C1507       C  0.76360711  0.51847996  0.89193334     0.02900
C1508       C  0.76571662  0.53366524  0.91926698    -0.12200
C1509       C  0.75591782  0.52124252  0.94645279    -0.03300
C1510       C  0.74246598  0.49351095  0.94552414     0.02200
C1511       C  0.74963749  0.47294200  0.86365068     0.09000
N1512       N  0.77521858  0.53108220  0.86509945     0.65400
H1513       H  0.77612221  0.55483187  0.91925443     0.18300
N1514       N  0.72980738  0.48067490  0.97179236     0.75900
H1515       H  0.73065329  0.45700902  0.91769203     0.09800
C1516       C  0.76628223  0.44716424  0.86090977     0.03500
C1517       C  0.75972715  0.42693584  0.83846076    -0.05200
C1518       C  0.73697881  0.43208600  0.81813070    -0.23600
C1519       C  0.72179381  0.45904701  0.81937739     0.12700
C1520       C  0.72815085  0.47924274  0.84227874    -0.12800
N1521       N  0.78927421  0.44089486  0.88153635     0.64400
H1522       H  0.77227410  0.40676955  0.83726215     0.12300
N1523       N  0.69847883  0.46524134  0.79919903     0.61100
H1524       H  0.71515656  0.49904125  0.84446926     0.08400
O1525       O  0.73746084  0.45531798  0.97974493    -0.40400
O1526       O  0.70822470  0.49288780  0.98449849    -0.39600
O1527       O  0.76445482  0.55449673  0.85500947    -0.39600
O1528       O  0.79802260  0.52047857  0.85321900    -0.37300
O1529       O  0.70207679  0.48338911  0.77826262    -0.38200
O1530       O  0.67337499  0.45550106  0.80457018    -0.34300
O1531       O  0.78865349  0.41792830  0.89711235    -0.35700
O1532       O  0.81113166  0.45737377  0.88281219    -0.40000
C1533       C  0.64261753  0.31717774  0.63094426    -0.13700
C1534       C  0.61446813  0.32852963  0.63431948     0.16700
C1535       C  0.60720059  0.34465345  0.66031740     0.02900
C1536       C  0.62851383  0.34985459  0.68220773    -0.12200
C1537       C  0.65738246  0.33963937  0.67829456    -0.03300
C1538       C  0.66417527  0.32269687  0.65221560     0.02200
C1539       C  0.59373558  0.32362010  0.60952911     0.09000
N1540       N  0.57870170  0.35693679  0.66406852     0.65400
H1541       H  0.62266580  0.36292011  0.70177575     0.18300
N1542       N  0.69269806  0.31098863  0.64642031     0.75900
H1543       H  0.64815561  0.30452589  0.61096814     0.09800
C1544       C  0.59883544  0.33659042  0.58140439     0.03500
C1545       C  0.58416103  0.32644457  0.55607225    -0.05200
C1546       C  0.56432398  0.30329277  0.55797023    -0.23600
C1547       C  0.55846079  0.29080998  0.58643071     0.12700
C1548       C  0.57296026  0.30146778  0.61201676    -0.12800
N1549       N  0.61990795  0.35925536  0.57809375     0.64400
H1550       H  0.58865421  0.33660755  0.53458204     0.12300
N1551       N  0.54062754  0.26541161  0.58930837     0.61100
H1552       H  0.56987414  0.29075636  0.63347640     0.08400
O1553       O  0.69545023  0.28397423  0.64109429    -0.40400
O1554       O  0.71254915  0.32791998  0.63768922    -0.39600
O1555       O  0.56153026  0.34663023  0.68348100    -0.39600
O1556       O  0.57117631  0.37903099  0.64902786    -0.37300
O1557       O  0.54560719  0.24342500  0.57271273    -0.38200
O1558       O  0.52413972  0.26271914  0.61193879    -0.34300
O1559       O  0.64065895  0.35624518  0.55955574    -0.35700
O1560       O  0.61698883  0.38292103  0.59258009    -0.40000
C1561       C  0.57774608  0.30567012  0.89717550    -0.13700
C1562       C  0.60645156  0.31526845  0.89927548     0.16700
C1563       C  0.61933352  0.31858187  0.92770396     0.02900
C1564       C  0.60301009  0.31273997  0.95357549    -0.12200
C1565       C  0.57364384  0.30417969  0.95190744    -0.03300
C1566       C  0.56118230  0.30009823  0.92305180     0.02200
C1567       C  0.62298736  0.32120582  0.87152277     0.09000
N1568       N  0.64868085  0.32861467  0.93068239     0.65400
H1569       H  0.61336656  0.31578967  0.97517859     0.18300
N1570       N  0.53185054  0.29061409  0.91926111     0.75900
H1571       H  0.56803646  0.30274466  0.87520717     0.09800
C1572       C  0.64604003  0.30275137  0.86224339     0.03500
C1573       C  0.66354899  0.31102266  0.83798459    -0.05200
C1574       C  0.65853678  0.33738955  0.82255819    -0.23600
C1575       C  0.63464690  0.35523083  0.83135725     0.12700
C1576       C  0.61715510  0.34698439  0.85572466    -0.12800
N1577       N  0.65218611  0.27586239  0.87753248     0.64400
H1578       H  0.68151600  0.29678516  0.83149182     0.12300
N1579       N  0.62868792  0.38243369  0.81691253     0.61100
H1580       H  0.59951025  0.36128076  0.86303404     0.08400
O1581       O  0.52707390  0.26761240  0.90433037    -0.40400
O1582       O  0.51116001  0.30836904  0.92418883    -0.39600
O1583       O  0.65620484  0.35247355  0.91894264    -0.39600
O1584       O  0.66614630  0.31539892  0.94780979    -0.37300
O1585       O  0.61368517  0.38290102  0.79323822    -0.38200
O1586       O  0.63501382  0.40612718  0.82989399    -0.34300
O1587       O  0.63202223  0.25797695  0.88274190    -0.35700
O1588       O  0.67813223  0.26873881  0.88343445    -0.40000
C1589       C  0.37449449  0.26407013  0.03156075    -0.13700
C1590       C  0.38554348  0.27481913  0.49540697     0.16700
C1591       C  0.36699774  0.25758805  0.47743825     0.02900
C1592       C  0.33677267  0.26251144  0.47884132    -0.12200
C1593       C  0.32468195  0.28371788  0.49838105    -0.03300
C1594       C  0.34410851  0.26420330  0.03169512     0.02200
C1595       C  0.41767087  0.27163231  0.49484110     0.09000
N1596       N  0.37831953  0.23453037  0.45856102     0.65400
H1597       H  0.32258338  0.24891570  0.46543802     0.18300
N1598       N  0.32879691  0.25330653  0.05735691     0.75900
H1599       H  0.38602699  0.25602221  0.05108119     0.09800
C1600       C  0.43457276  0.27675096  0.46875824     0.03500
C1601       C  0.46603315  0.29349114  0.03169145    -0.05200
C1602       C  0.47918038  0.27153290  0.49843912    -0.23600
C1603       C  0.46198192  0.26468812  0.52391803     0.12700
C1604       C  0.43164088  0.26505435  0.52187985    -0.12800
N1605       N  0.42129610  0.28434435  0.44066234     0.64400
H1606       H  0.47600093  0.30635269  0.04933102     0.12300
N1607       N  0.47484142  0.25667567  0.55191601     0.61100
H1608       H  0.41873700  0.26033256  0.54175272     0.08400
O1609       O  0.31355646  0.23060979  0.05486822    -0.40400
O1610       O  0.33302919  0.26431768  0.08304396    -0.39600
O1611       O  0.39701621  0.21677420  0.46860449    -0.39600
O1612       O  0.36751460  0.23002791  0.43291956    -0.37300
O1613       O  0.46677988  0.26938480  0.57587912    -0.38200
O1614       O  0.48940418  0.23323322  0.55345066    -0.34300
O1615       O  0.42637574  0.30321303  0.08209272    -0.35700
O1616       O  0.43156525  0.27422677  0.41629311    -0.40000
loop_ 
_geom_bond_atom_site_label_1 
_geom_bond_atom_site_label_2 
_geom_bond_distance 
_geom_bond_site_symmetry_2 
_ccdc_geom_bond_type 
C1            N6   1.354       .  A
C1          N810   1.360   1_554  A
C1          C794   1.478       .  S
N2            C3   1.359       .  A
N2          C809   1.364       .  A
C3            N4   1.354       .  A
C3          C757   1.490       .  S
N4          C813   1.353       .  A
C5            N6   1.349       .  A
C5          N812   1.355       .  A
C5          C738   1.480       .  S
O7           C22   1.267       .  A
O7          Al15   1.927       .  S
C8          C617   1.467       .  S
C8           O18   1.260       .  A
C8            O9   1.260       .  A
O9          Al11   1.897       .  S
O10          C12   1.259       .  A
O10         Al11   1.893       .  S
Al11         O19   1.909       .  S
Al11         O21   1.885       .  S
Al11         O20   1.775       .  S
C12         C710   1.478       .  S
C12          O25   1.258       .  A
O13          C23   1.266       .  A
O13         Al15   1.923       .  S
O14          C27   1.256       .  A
O14         Al24   1.886       .  S
Al15         O28   1.899       .  S
Al15         O25   1.898       .  S
Al15         O20   1.783       .  S
O16          C23   1.261       .  A
O16         Al24   1.884       .  S
O17          C26   1.261       .  A
O17         Al24   1.894       .  S
O18         Al24   1.906       .  S
O19          C26   1.263       .  A
O20         Al24   1.777       .  S
O21          C22   1.261       .  A
C22         C766   1.486       .  S
C23         C682   1.480       .  S
C26         C654   1.477       .  S
C27         C729   1.479       .  S
C27          O28   1.260       .  A
C29          N34   1.359       .  A
C29         N838   1.356   1_554  A
C29         C589   1.477   1_554  S
N30          C31   1.351       .  A
N30         C837   1.358       .  A
C31         N840   1.352       .  A
C31         C701   1.475       .  S
N32          C33   1.359       .  A
N32         C839   1.357   1_554  A
C33          N34   1.359       .  A
C33         C673   1.486       .  S
C35          N36   1.357       .  A
C35          N40   1.358       .  A
C35         C645   1.479       .  S
N36          C37   1.355       .  A
C37          N38   1.356       .  A
C37         C542   1.470       .  S
N38          C39   1.356       .  A
C39          N40   1.356       .  A
C39         C570   1.477       .  S
O41          C56   1.260       .  A
O41         Al49   1.892   1_554  S
C42         C598   1.484       .  S
C42          O43   1.259   1_556  A
C42         O860   1.258       .  A
O43         Al45   1.895       .  S
O44          C46   1.258       .  A
O44         Al45   1.879       .  S
Al45         O53   1.877       .  S
Al45         O55   1.900       .  S
Al45         O54   1.780   1_554  S
C46         C477   1.485       .  S
C46          O59   1.266       .  A
O47          C57   1.261       .  A
O47        Al857   1.893       .  S
O48          C61   1.259       .  A
O48         Al58   1.887       .  S
Al49         O59   1.929   1_556  S
Al49        O855   1.887       .  S
Al49        O870   1.920       .  S
Al49         O54   1.784       .  S
O50          C57   1.265       .  A
O50         Al58   1.913       .  S
O51         C868   1.262       .  A
O51         Al58   1.915       .  S
O52         C850   1.258       .  A
O52         Al58   1.892       .  S
O53          C60   1.257   1_554  A
O54        Al866   1.778       .  S
O55          C56   1.260       .  A
C56         C533   1.471       .  S
C57         C514   1.480       .  S
Al58        O862   1.782       .  S
C60         C458   1.469   1_556  S
C60         O859   1.265       .  A
C61         C561   1.484       .  S
C61          O62   1.260       .  A
O62        Al857   1.909       .  S
C63          N64   1.362       .  A
C63          N68   1.364       .  A
C63         C421   1.488       .  S
N64          C65   1.358       .  A
C65          N66   1.355       .  A
C65         C486   1.493       .  S
N66          C67   1.354       .  A
C67          N68   1.360       .  A
C67         C505   1.480       .  S
C69          N70   1.360       .  A
C69          N74   1.359       .  A
C69         C402   1.477       .  S
N70          C71   1.358       .  A
C71          N72   1.357       .  A
C71         C337   1.480       .  S
N72          C73   1.356       .  A
C73          N74   1.356       .  A
C73         C374   1.471       .  S
O75          C90   1.267       .  A
O75        Al891   1.920       .  S
C76         C785   1.463       .  S
C76          O86   1.263       .  A
C76         O885   1.257   1_554  A
O77         C884   1.262       .  A
O77         Al79   1.892       .  S
O78          C80   1.258       .  A
O78         Al79   1.897       .  S
Al79         O87   1.900       .  S
Al79         O89   1.882       .  S
Al79        O896   1.780       .  S
C80         C365   1.484       .  S
C80          O93   1.262       .  A
O81          C91   1.260       .  A
O81         Al83   1.915       .  S
O82          C95   1.262       .  A
O82         Al92   1.901       .  S
Al83         O96   1.890       .  S
Al83        O883   1.922   1_554  S
Al83        O901   1.907   1_554  S
Al83         O88   1.790       .  S
O84          C91   1.258       .  A
O84         Al92   1.885       .  S
O85          C94   1.258       .  A
O85         Al92   1.903       .  S
O86         Al92   1.908       .  S
O87         C902   1.258       .  A
O88         Al92   1.780       .  S
O88        Al887   1.782   1_554  S
O89          C90   1.260       .  A
C90         C318   1.476       .  S
C91         C346   1.489       .  S
O93        Al891   1.910       .  S
C94         C262   1.488       .  S
C94         O895   1.259   1_554  A
C95         C290   1.469       .  S
C95          O96   1.260       .  A
C97          N98   1.356       .  A
C97         N102   1.358       .  A
C97         C626   1.485   1_455  S
N98          C99   1.354       .  A
C99         N100   1.356       .  A
C99         C309   1.472       .  S
N100        C101   1.357       .  A
C101        N102   1.357       .  A
C101        C281   1.481       .  S
C103        N108   1.362       .  A
C103        N912   1.361   1_554  A
C103        C253   1.487       .  S
N104        C105   1.355       .  A
N104        C911   1.358       .  A
C105        N914   1.357       .  A
C105        C197   1.483       .  S
N106        C107   1.356       .  A
N106        C913   1.356   1_554  A
C107        N108   1.359       .  A
C107        C234   1.492       .  S
O109        C124   1.260       .  A
O109       Al117   1.895       .  S
C110        C393   1.471       .  S
C110        O120   1.261       .  A
C110        O111   1.264       .  A
O111       Al113   1.911       .  S
O112        C114   1.258       .  A
O112       Al113   1.887       .  S
Al113       O121   1.901       .  S
Al113       O123   1.908       .  S
Al113       O122   1.781       .  S
C114        C169   1.487       .  S
C114        O127   1.263       .  A
O115        C125   1.259       .  A
O115       Al117   1.902       .  S
O116        C129   1.260       .  A
O116       Al126   1.879       .  S
Al117       O130   1.925       .  S
Al117       O127   1.918       .  S
Al117       O122   1.786       .  S
O118        C125   1.260       .  A
O118       Al126   1.909       .  S
O119        C128   1.261       .  A
O119       Al126   1.906       .  S
O120       Al126   1.887       .  S
O121        C128   1.259       .  A
O122       Al126   1.784       .  S
O123        C124   1.262       .  A
C124        C225   1.481       .  S
C125        C141   1.475       .  S
C128        C430   1.489       .  S
C129        C206   1.485       .  S
C129        O130   1.267       .  A
C131        N132   1.359       .  A
C131        N944   1.358   1_554  A
C131        C449   1.477       .  S
N132        C133   1.358       .  A
C133        N134   1.359       .  A
C133        C178   1.488       .  S
N134        C943   1.357   1_554  A
C135        N136   1.358       .  A
C135        N942   1.356       .  A
C135        C150   1.484       .  S
N136        C939   1.360       .  A
C137        C138   1.405       .  A
C137        C142   1.404       .  A
C137        H147   1.084       .  S
C138        C143   1.482       .  S
C138        C139   1.412       .  A
C139        C140   1.400       .  A
C139        N144   1.438       .  S
C140        C141   1.403       .  A
C140        H145   1.084       .  S
C141        C142   1.410       .  A
C142        N146   1.432       .  S
C143        C148   1.407       .  A
C143        C152   1.402       .  A
N144        O159   1.262       .  A
N144        O160   1.263       .  A
N146        O157   1.262       .  A
N146        O158   1.263       .  A
C148        C149   1.402       .  A
C148        N153   1.429       .  S
C149        C150   1.407       .  A
C149        H154   1.083       .  S
C150        C151   1.415       .  A
C151        C152   1.399       .  A
C151        N155   1.433       .  S
C152        H156   1.084       .  S
N153        O163   1.262       .  A
N153        O164   1.262       .  A
N155        O162   1.262       .  A
N155        O969   1.262       .  A
O161        N963   1.262       .  A
C165        C166   1.397       .  A
C165        C170   1.397       .  A
C165        H175   1.084       .  S
C166        C171   1.475       .  S
C166        C167   1.406       .  A
C167        C168   1.402       .  A
C167        N172   1.430       .  S
C168        C169   1.409       .  A
C168        H173   1.084       .  S
C169        C170   1.417       .  A
C170        N174   1.428       .  S
C171        C176   1.404       .  A
C171        C180   1.400       .  A
N172        O187   1.262       .  A
N172        O188   1.262       .  A
N174        O185   1.262       .  A
N174        O186   1.262       .  A
C176        C177   1.395       .  A
C176        N181   1.429       .  S
C177        C178   1.408       .  A
C177        H182   1.083       .  S
C178        C179   1.419       .  A
C179        C180   1.404       .  A
C179        N183   1.430       .  S
C180        H184   1.084       .  S
N181        O191   1.262       .  A
N181        O192   1.262       .  A
N183        O189   1.262       .  A
N183        O190   1.262       .  A
C193        C194   1.400       .  A
C193        C198   1.399       .  A
C193        H203   1.084       .  S
C194        C199   1.476       .  S
C194        C195   1.412       .  A
C195        C196   1.400       .  A
C195        N200   1.437       .  S
C196        C197   1.406       .  A
C196        H201   1.084       .  S
C197        C198   1.415       .  A
C198        N202   1.429       .  S
C199        C204   1.409       .  A
C199        C208   1.399       .  A
N200        O215   1.263       .  A
N200        O216   1.262       .  A
N202        O213   1.262       .  A
N202        O214   1.262       .  A
C204        C205   1.401       .  A
C204        N209   1.437       .  S
C205        C206   1.408       .  A
C205        H210   1.083       .  S
C206        C207   1.419       .  A
C207        C208   1.399       .  A
C207        N211   1.434       .  S
C208        H212   1.084       .  S
N209        O219   1.263       .  A
N209        O220   1.262       .  A
N211        O217   1.262       .  A
N211        O218   1.262       .  A
C221        C222   1.400       .  A
C221        C226   1.403       .  A
C221        H231   1.084       .  S
C222        C227   1.477       .  S
C222        C223   1.407       .  A
C223        C224   1.397       .  A
C223        N228   1.429       .  S
C224        C225   1.404       .  A
C224        H229   1.084       .  S
C225        C226   1.415       .  A
C226        N230   1.429       .  S
C227        C232   1.404       .  A
C227        C236   1.399       .  A
N228        O243   1.262       .  A
N228        O244   1.262       .  A
N230        O241   1.262       .  A
N230        O242   1.262       .  A
C232        C233   1.397       .  A
C232        N237   1.431       .  S
C233        C234   1.410       .  A
C233        H238   1.084       .  S
C234        C235   1.421       .  A
C235        C236   1.406       .  A
C235        N239   1.432       .  S
C236        H240   1.084       .  S
N237        O247   1.262       .  A
N237        O248   1.262       .  A
N239        O245   1.262       .  A
N239        O246   1.262       .  A
C249        C254   1.404       .  A
C249       C1058   1.402       .  A
C249        H259   1.084       .  S
C250        C255   1.472       .  S
C250        C251   1.406       .  A
C250       C1057   1.399       .  A
C251        C252   1.397       .  A
C251        N256   1.431       .  S
C252       C1061   1.406       .  A
C252        H257   1.083       .  S
C253        C254   1.417       .  A
C253       C1060   1.407   1_554  A
C254        N258   1.437       .  S
C255        C260   1.406       .  A
C255       C1072   1.400       .  A
N256        O271   1.262       .  A
N256        O272   1.262       .  A
N258        O269   1.263       .  A
N258        O270   1.263       .  A
C260        C261   1.396       .  A
C260        N265   1.431       .  S
C261       C1070   1.406       .  A
C261        H266   1.084       .  S
C262        C263   1.413       .  A
C262       C1069   1.408   1_554  A
C263        C264   1.401       .  A
C263        N267   1.428       .  S
C264       C1063   1.402       .  A
C264        H268   1.084       .  S
N265        O275   1.262       .  A
N265        O276   1.262       .  A
N267        O273   1.262       .  A
N267        O274   1.262       .  A
C277        C278   1.404       .  A
C277        C282   1.399       .  A
C277        H287   1.084       .  S
C278        C283   1.485       .  S
C278        C279   1.412       .  A
C279        C280   1.400       .  A
C279        N284   1.435       .  S
C280        C281   1.406       .  A
C280        H285   1.084       .  S
C281        C282   1.415       .  A
C282        N286   1.435       .  S
C283        C288   1.415       .  A
C283        C292   1.405       .  A
N284        O299   1.263       .  A
N284        O300   1.262       .  A
N286        O297   1.263       .  A
N286        O298   1.262       .  A
C288        C289   1.400       .  A
C288        N293   1.436       .  S
C289        C290   1.401       .  A
C289        H294   1.084       .  S
C290        C291   1.407       .  A
C291        C292   1.397       .  A
C291        N295   1.429       .  S
C292        H296   1.084       .  S
N293        O303   1.263       .  A
N293        O304   1.262       .  A
N295        O301   1.262       .  A
N295        O302   1.262       .  A
C305        C306   1.401       .  A
C305        C310   1.398       .  A
C305        H315   1.084       .  S
C306        C311   1.472       .  S
C306        C307   1.405       .  A
C307        C308   1.398       .  A
C307        N312   1.429       .  S
C308        C309   1.405       .  A
C308        H313   1.084       .  S
C309        C310   1.414       .  A
C310        N314   1.435       .  S
C311        C316   1.407       .  A
C311        C320   1.400       .  A
N312        O327   1.262       .  A
N312        O328   1.262       .  A
N314        O325   1.263       .  A
N314        O326   1.262       .  A
C316        C317   1.396       .  A
C316        N321   1.431       .  S
C317        C318   1.405       .  A
C317        H322   1.084       .  S
C318        C319   1.414       .  A
C319        C320   1.398       .  A
C319        N323   1.430       .  S
C320        H324   1.084       .  S
N321        O331   1.262       .  A
N321        O332   1.262       .  A
N323        O329   1.262       .  A
N323        O330   1.262       .  A
C333        C334   1.402       .  A
C333        C338   1.400       .  A
C333        H343   1.084       .  S
C334        C339   1.477       .  S
C334        C335   1.406       .  A
C335        C336   1.399       .  A
C335        N340   1.430       .  S
C336        C337   1.406       .  A
C336        H341   1.084       .  S
C337        C338   1.413       .  A
C338        N342   1.430       .  S
C339        C344   1.406       .  A
C339        C348   1.400       .  A
N340        O355   1.262       .  A
N340        O356   1.262       .  A
N342        O353   1.262       .  A
N342        O354   1.262       .  A
C344        C345   1.397       .  A
C344        N349   1.433       .  S
C345        C346   1.408       .  A
C345        H350   1.083       .  S
C346        C347   1.420       .  A
C347        C348   1.404       .  A
C347        N351   1.434       .  S
C348        H352   1.084       .  S
N349        O359   1.262       .  A
N349        O360   1.262       .  A
N351        O357   1.262       .  A
N351        O358   1.262       .  A
C361        C362   1.396       .  A
C361        C366   1.392       .  A
C361        H371   1.085       .  S
C362        C367   1.472       .  S
C362        C363   1.405       .  A
C363        C364   1.405       .  A
C363        N368   1.428       .  S
C364        C365   1.409       .  A
C364        H369   1.084       .  S
C365        C366   1.418       .  A
C366        N370   1.430       .  S
C367        C372   1.405       .  A
C367        C376   1.401       .  A
N368        O383   1.262       .  A
N368        O384   1.262       .  A
N370        O381   1.262       .  A
N370        O382   1.262       .  A
C372        C373   1.398       .  A
C372        N377   1.429       .  S
C373        C374   1.403       .  A
C373        H378   1.084       .  S
C374        C375   1.414       .  A
C375        C376   1.402       .  A
C375        N379   1.435       .  S
C376        H380   1.084       .  S
N377        O387   1.262       .  A
N377        O388   1.262       .  A
N379        O385   1.262       .  A
N379        O386   1.262       .  A
C389        C390   1.404       .  A
C389        C394   1.397       .  A
C389        H399   1.087       .  S
C390        C395   1.482       .  S
C390        C391   1.415       .  A
C391        C392   1.400       .  A
C391        N396   1.439       .  S
C392        C393   1.401       .  A
C392        H397   1.087       .  S
C393        C394   1.408       .  A
C394        N398   1.431       .  S
C395        C400   1.415       .  A
C395        C404   1.402       .  A
N396        O411   1.263       .  A
N396        O412   1.263       .  A
N398        O409   1.262       .  A
N398        O410   1.262       .  A
C400        C401   1.401   1_565  A
C400        N405   1.437       .  S
C401        C402   1.404       .  A
C401        H406   1.084       .  S
C402        C403   1.412       .  A
C403        C404   1.398   1_545  A
C403        N407   1.432       .  S
C404        H408   1.084       .  S
N405        O415   1.263       .  A
N405        O416   1.263       .  A
N407        O413   1.262       .  A
N407        O414   1.262       .  A
C417        C418   1.403       .  A
C417        C422   1.402       .  A
C417        H427   1.084       .  S
C418        C423   1.487       .  S
C418        C419   1.411       .  A
C419        C420   1.403       .  A
C419        N424   1.434       .  S
C420        C421   1.408       .  A
C420        H425   1.084       .  S
C421        C422   1.415       .  A
C422        N426   1.433       .  S
C423        C428   1.410       .  A
C423        C432   1.405       .  A
N424        O439   1.262       .  A
N424        O440   1.262       .  A
N426        O437   1.263       .  A
N426        O438   1.262       .  A
C428        C429   1.399       .  A
C428        N433   1.434       .  S
C429        C430   1.408       .  A
C429        H434   1.084       .  S
C430        C431   1.416       .  A
C431        C432   1.405       .  A
C431        N435   1.432       .  S
C432        H436   1.084       .  S
N433        O443   1.262       .  A
N433        O444   1.262       .  A
N435        O441   1.262       .  A
N435        O442   1.262       .  A
C445        C446   1.400   1_556  A
C445       C1258   1.394       .  A
C445       H1263   1.084       .  S
C446        C451   1.479       .  S
C446        C447   1.414       .  A
C447        C448   1.404       .  A
C447        N452   1.437       .  S
C448        C449   1.405       .  A
C448        H453   1.083       .  S
C449       C1258   1.412   1_554  A
C450       C1253   1.397       .  A
C450       C1257   1.412       .  A
C450        N454   1.431       .  S
C451        C456   1.415       .  A
C451       C1268   1.404   1_554  A
N452        O467   1.263       .  A
N452        O468   1.263       .  A
N454        O465   1.262       .  A
N454        O466   1.262       .  A
H455       C1253   1.084       .  S
C456        C457   1.401       .  A
C456        N461   1.437       .  S
C457        C458   1.402       .  A
C457        H462   1.084       .  S
C458       C1267   1.407   1_554  A
C459        C460   1.397       .  A
C459       C1266   1.406       .  A
C459        N463   1.428       .  S
C460       C1259   1.403       .  A
C460        H464   1.084       .  S
N461        O471   1.263       .  A
N461        O472   1.263       .  A
N463        O469   1.262       .  A
N463        O470   1.262       .  A
C473        C474   1.401       .  A
C473        C478   1.399       .  A
C473        H483   1.084       .  S
C474        C479   1.481       .  S
C474        C475   1.408       .  A
C475        C476   1.401       .  A
C475        N480   1.431       .  S
C476        C477   1.407       .  A
C476        H481   1.084       .  S
C477        C478   1.417       .  A
C478        N482   1.432       .  S
C479        C484   1.407       .  A
C479        C488   1.402       .  A
N480        O495   1.262       .  A
N480        O496   1.262       .  A
N482        O493   1.262       .  A
N482        O494   1.262       .  A
C484        C485   1.397       .  A
C484        N489   1.434       .  S
C485        C486   1.410   1_655  A
C485        H490   1.083       .  S
C486        C487   1.419       .  A
C487        C488   1.404   1_455  A
C487        N491   1.431       .  S
C488        H492   1.084   1_655  S
N489        O499   1.262       .  A
N489        O500   1.263       .  A
N491        O497   1.262       .  A
N491        O498   1.262       .  A
C501        C502   1.401       .  A
C501        C506   1.407   1_655  A
C501        H511   1.084       .  S
C502        C507   1.474       .  S
C502        C503   1.405       .  A
C503        C504   1.395       .  A
C503        N508   1.431       .  S
C504        C505   1.405   1_655  A
C504        H509   1.084       .  S
C505        C506   1.415       .  A
C506        N510   1.434       .  S
C507        C512   1.406       .  A
C507        C516   1.400       .  A
N508        O523   1.262       .  A
N508        O524   1.262       .  A
N510        O521   1.262       .  A
N510        O522   1.262       .  A
C512        C513   1.397       .  A
C512        N517   1.430       .  S
C513        C514   1.405       .  A
C513        H518   1.084       .  S
C514        C515   1.414       .  A
C515        C516   1.401       .  A
C515        N519   1.429       .  S
C516        H520   1.084       .  S
N517        O527   1.262       .  A
N517        O528   1.262       .  A
N519        O525   1.262       .  A
N519        O526   1.262       .  A
C529        C530   1.398       .  A
C529        C534   1.394       .  A
C529        H539   1.084       .  S
C530        C535   1.468       .  S
C530        C531   1.406       .  A
C531        C532   1.399       .  A
C531        N536   1.430   1_565  S
C532        C533   1.404       .  A
C532        H537   1.084       .  S
C533        C534   1.414       .  A
C534        N538   1.430       .  S
C535        C540   1.405   1_565  A
C535        C544   1.400       .  A
N536        O551   1.262   1_545  A
N536        O552   1.262       .  A
N538        O549   1.262       .  A
N538        O550   1.262       .  A
C540        C541   1.398       .  A
C540        N545   1.429       .  S
C541        C542   1.404       .  A
C541        H546   1.084       .  S
C542        C543   1.410       .  A
C543        C544   1.396   1_545  A
C543        N547   1.430       .  S
C544        H548   1.084       .  S
N545        O555   1.262       .  A
N545        O556   1.262       .  A
N547        O553   1.262   1_545  A
N547        O554   1.262       .  A
C557        C558   1.400       .  A
C557        C562   1.398       .  A
C557        H567   1.085       .  S
C558        C563   1.478       .  S
C558        C559   1.409       .  A
C559        C560   1.398       .  A
C559        N564   1.434       .  S
C560        C561   1.405       .  A
C560        H565   1.082       .  S
C561        C562   1.416       .  A
C562        N566   1.429       .  S
C563        C568   1.408   1_565  A
C563        C572   1.402       .  A
N564        O579   1.262       .  A
N564        O580   1.262       .  A
N566        O577   1.262       .  A
N566        O578   1.262       .  A
C568        C569   1.400       .  A
C568        N573   1.432       .  S
C569        C570   1.405       .  A
C569        H574   1.084       .  S
C570        C571   1.414   1_545  A
C571        C572   1.398       .  A
C571        N575   1.433       .  S
C572        H576   1.084       .  S
N573        O583   1.262       .  A
N573        O584   1.262       .  A
N575        O581   1.262       .  A
N575        O582   1.262       .  A
C585        C586   1.404   1_554  A
C585        C590   1.401       .  A
C585        H595   1.084       .  S
C586        C591   1.480       .  S
C586       C1395   1.408       .  A
C587        C588   1.396       .  A
C587       C1394   1.407       .  A
C587        N592   1.434       .  S
C588       C1397   1.410       .  A
C588        H593   1.083       .  S
C589        C590   1.414   1_556  A
C589       C1396   1.405       .  A
C590        N594   1.435       .  S
C591        C596   1.407   1_556  A
C591       C1408   1.404       .  A
N592        O607   1.262       .  A
N592        O608   1.262       .  A
N594        O605   1.263       .  A
N594        O606   1.262       .  A
C596        C597   1.396       .  A
C596        N601   1.433       .  S
C597        C598   1.408   1_554  A
C597        H602   1.084       .  S
C598       C1407   1.415       .  A
C599        C600   1.400       .  A
C599       C1406   1.414       .  A
C599        N603   1.431       .  S
C600       C1399   1.404       .  A
C600        H604   1.084       .  S
N601        O611   1.262       .  A
N601        O612   1.262       .  A
N603        O609   1.262       .  A
N603        O610   1.262       .  A
C613        C614   1.403       .  A
C613        C618   1.399       .  A
C613        H623   1.084       .  S
C614        C619   1.474       .  S
C614        C615   1.413       .  A
C615        C616   1.398       .  A
C615        N620   1.438       .  S
C616        C617   1.402       .  A
C616        H621   1.084       .  S
C617        C618   1.408       .  A
C618        N622   1.431       .  S
C619        C624   1.410       .  A
C619        C628   1.398       .  A
N620        O635   1.263       .  A
N620        O636   1.263       .  A
N622        O633   1.262       .  A
N622        O634   1.262       .  A
C624        C625   1.400       .  A
C624        N629   1.437       .  S
C625        C626   1.408       .  A
C625        H630   1.083       .  S
C626        C627   1.417       .  A
C627        C628   1.396       .  A
C627        N631   1.430       .  S
C628        H632   1.084       .  S
N629        O639   1.262       .  A
N629        O640   1.263       .  A
N631        O637   1.262       .  A
N631        O638   1.262       .  A
C641        C642   1.398       .  A
C641        C646   1.397       .  A
C641        H651   1.084       .  S
C642        C647   1.469       .  S
C642        C643   1.405       .  A
C643        C644   1.397       .  A
C643        N648   1.431       .  S
C644        C645   1.406       .  A
C644        H649   1.084       .  S
C645        C646   1.415       .  A
C646        N650   1.429       .  S
C647        C652   1.405       .  A
C647        C656   1.398       .  A
N648        O663   1.262       .  A
N648        O664   1.262       .  A
N650        O661   1.262       .  A
N650        O662   1.262       .  A
C652        C653   1.395       .  A
C652        N657   1.432       .  S
C653        C654   1.407       .  A
C653        H658   1.084       .  S
C654        C655   1.417       .  A
C655        C656   1.403       .  A
C655        N659   1.437       .  S
C656        H660   1.084       .  S
N657        O667   1.262       .  A
N657        O668   1.262       .  A
N659        O665   1.263       .  A
N659        O666   1.262       .  A
C669        C670   1.400       .  A
C669        C674   1.405       .  A
C669        H679   1.084       .  S
C670        C675   1.479       .  S
C670        C671   1.410       .  A
C671        C672   1.399       .  A
C671        N676   1.435       .  S
C672        C673   1.406       .  A
C672        H677   1.084       .  S
C673        C674   1.419       .  A
C674        N678   1.434       .  S
C675        C680   1.410       .  A
C675        C684   1.401       .  A
N676        O691   1.263       .  A
N676        O692   1.262       .  A
N678        O689   1.262       .  A
N678        O690   1.262       .  A
C680        C681   1.401       .  A
C680        N685   1.436       .  S
C681        C682   1.405       .  A
C681        H686   1.084       .  S
C682        C683   1.414       .  A
C683        C684   1.400       .  A
C683        N687   1.430       .  S
C684        H688   1.084       .  S
N685        O695   1.262       .  A
N685        O696   1.262       .  A
N687        O693   1.262       .  A
N687        O694   1.262       .  A
C697        C698   1.399       .  A
C697        C702   1.398       .  A
C697        H707   1.084       .  S
C698        C703   1.469       .  S
C698        C699   1.404       .  A
C699        C700   1.399       .  A
C699        N704   1.429       .  S
C700        C701   1.406       .  A
C700        H705   1.084       .  S
C701        C702   1.414       .  A
C702        N706   1.433       .  S
C703        C708   1.403       .  A
C703        C712   1.401       .  A
N704        O719   1.262       .  A
N704        O720   1.262       .  A
N706        O717   1.262       .  A
N706        O718   1.262       .  A
C708        C709   1.393       .  A
C708        N713   1.430       .  S
C709        C710   1.406       .  A
C709        H714   1.084       .  S
C710        C711   1.414       .  A
C711        C712   1.402       .  A
C711        N715   1.429       .  S
C712        H716   1.084       .  S
N713        O723   1.262       .  A
N713        O724   1.262       .  A
N715        O721   1.262       .  A
N715        O722   1.262       .  A
C725        C726   1.397       .  A
C725        C730   1.389       .  A
C725        H735   1.085       .  S
C726        C731   1.473       .  S
C726        C727   1.406       .  A
C727        C728   1.402       .  A
C727        N732   1.430       .  S
C728        C729   1.409       .  A
C728        H733   1.084       .  S
C729        C730   1.417       .  A
C730        N734   1.431       .  S
C731        C736   1.409       .  A
C731        C740   1.399       .  A
N732        O747   1.262       .  A
N732        O748   1.262       .  A
N734        O745   1.261       .  A
N734        O746   1.262       .  A
C736        C737   1.395       .  A
C736        N741   1.435       .  S
C737        C738   1.404       .  A
C737        H742   1.084       .  S
C738        C739   1.418       .  A
C739        C740   1.399       .  A
C739        N743   1.431       .  S
C740        H744   1.084       .  S
N741        O751   1.262       .  A
N741        O752   1.263       .  A
N743        O749   1.262       .  A
N743        O750   1.262       .  A
C753        C754   1.402       .  A
C753        C758   1.405       .  A
C753        H763   1.084       .  S
C754        C759   1.478       .  S
C754        C755   1.409       .  A
C755        C756   1.397       .  A
C755        N760   1.437       .  S
C756        C757   1.409       .  A
C756        H761   1.083       .  S
C757        C758   1.415       .  A
C758        N762   1.430       .  S
C759        C764   1.408       .  A
C759        C768   1.400       .  A
N760        O775   1.263       .  A
N760        O776   1.262       .  A
N762        O773   1.262       .  A
N762        O774   1.262       .  A
C764        C765   1.398       .  A
C764        N769   1.432       .  S
C765        C766   1.407       .  A
C765        H770   1.084       .  S
C766        C767   1.416       .  A
C767        C768   1.402       .  A
C767        N771   1.430       .  S
C768        H772   1.084       .  S
N769        O779   1.262       .  A
N769        O780   1.262       .  A
N771        O777   1.262       .  A
N771        O778   1.262       .  A
C781        C786   1.395       .  A
C781       C1590   1.401       .  A
C781        H791   1.084       .  S
C782        C787   1.475       .  S
C782        C783   1.412   1_554  A
C782       C1589   1.403       .  A
C783        C784   1.396       .  A
C783        N788   1.434       .  S
C784        C785   1.400   1_556  A
C784        H789   1.084       .  S
C785       C1594   1.407       .  A
C786       C1593   1.412       .  A
C786        N790   1.431       .  S
C787        C792   1.408       .  A
C787        C796   1.402   1_554  A
N788        O803   1.262       .  A
N788        O804   1.263       .  A
N790        O801   1.262       .  A
N790        O802   1.262       .  A
C792       C1601   1.392       .  A
C792        N797   1.435       .  S
C793       C1600   1.406       .  A
C793       C1602   1.410       .  A
C793        H798   1.083       .  S
C794        C795   1.416   1_554  A
C794       C1601   1.407       .  A
C795        C796   1.402       .  A
C795        N799   1.437       .  S
C796        H800   1.084       .  S
N797        O808   1.262       .  A
N797       O1615   1.262       .  A
N799        O805   1.262       .  A
N799        O806   1.263       .  A
O807       N1605   1.262       .  A
C809        N814   1.365       .  A
C809       C1602   1.492       .  S
N810        C811   1.360       .  A
C811        N812   1.359   1_556  A
C811       C1565   1.491       .  S
C813        N814   1.359       .  A
C813       C1546   1.484       .  S
O815        C830   1.266       .  A
O815       Al823   1.932       .  S
C816       C1425   1.484       .  S
C816        O826   1.263       .  A
C816        O817   1.259       .  A
O817       Al819   1.885       .  S
O818        C820   1.259       .  A
O818       Al819   1.891       .  S
Al819       O827   1.902       .  S
Al819       O829   1.867       .  S
Al819       O828   1.777       .  S
C820       C1518   1.477       .  S
C820        O833   1.260       .  A
O821        C831   1.265       .  A
O821       Al823   1.922       .  S
O822        C835   1.260       .  A
O822       Al832   1.906       .  S
Al823       O836   1.908       .  S
Al823       O833   1.906       .  S
Al823       O828   1.788       .  S
O824        C831   1.261       .  A
O824       Al832   1.889       .  S
O825        C834   1.261       .  A
O825       Al832   1.900       .  S
O826       Al832   1.918       .  S
O827        C834   1.261       .  A
O828       Al832   1.777       .  S
O829        C830   1.258       .  A
C830       C1574   1.483       .  S
C831       C1490   1.488       .  S
C834       C1462   1.486       .  S
C835       C1537   1.492       .  S
C835        O836   1.263       .  A
C837        N842   1.365       .  A
C837       C1397   1.489       .  S
N838        C839   1.354       .  A
C839       C1509   1.487       .  S
N840        C841   1.358       .  A
C841        N842   1.363       .  A
C841       C1481   1.496       .  S
C843        N844   1.356       .  A
C843        N848   1.359       .  A
C843       C1453   1.478       .  S
N844        C845   1.354       .  A
C845        N846   1.357       .  A
C845       C1350   1.476       .  S
N846        C847   1.358       .  A
C847        N848   1.360       .  A
C847       C1378   1.493       .  S
O849        C864   1.261       .  A
O849       Al857   1.895       .  S
C850       C1406   1.481       .  S
C850        O851   1.260       .  A
O851       Al853   1.898       .  S
O852        C854   1.257       .  A
O852       Al853   1.882       .  S
Al853       O861   1.881       .  S
Al853       O863   1.902       .  S
Al853       O862   1.783       .  S
C854       C1285   1.482       .  S
C854        O867   1.261       .  A
O855        C865   1.260       .  A
O856        C869   1.257       .  A
O856       Al866   1.882       .  S
Al857       O867   1.915       .  S
Al857       O862   1.790       .  S
O858        C865   1.266       .  A
O858       Al866   1.916       .  S
O859       Al866   1.919       .  S
O860       Al866   1.896       .  S
O861        C868   1.256       .  A
O863        C864   1.262       .  A
C864       C1341   1.471       .  S
C865       C1322   1.482       .  S
C868       C1266   1.473       .  S
C869       C1369   1.484       .  S
C869        O870   1.262       .  A
C871        N872   1.364       .  A
C871        N876   1.363       .  A
C871       C1229   1.494       .  S
N872        C873   1.359       .  A
C873        N874   1.354       .  A
C873       C1294   1.492       .  S
N874        C875   1.352       .  A
C875        N876   1.359       .  A
C875       C1313   1.481       .  S
C877        N878   1.359       .  A
C877        N882   1.359       .  A
C877       C1210   1.476       .  S
N878        C879   1.358       .  A
C879        N880   1.357       .  A
C879       C1145   1.489       .  S
N880        C881   1.358       .  A
C881        N882   1.356       .  A
C881       C1182   1.492       .  S
O883        C898   1.266       .  A
C884       C1593   1.481       .  S
C884        O894   1.267       .  A
O885       Al887   1.873       .  S
O886        C888   1.261       .  A
O886       Al887   1.901       .  S
Al887       O895   1.902       .  S
Al887       O897   1.880       .  S
C888       C1173   1.476       .  S
C888        O901   1.261       .  A
O889        C899   1.262       .  A
O889       Al891   1.914       .  S
O890        C903   1.263       .  A
O890       Al900   1.910       .  S
Al891       O904   1.887       .  S
Al891       O896   1.785       .  S
O892        C899   1.260       .  A
O892       Al900   1.891       .  S
O893        C902   1.258       .  A
O893       Al900   1.899       .  S
O894       Al900   1.922       .  S
O896       Al900   1.776       .  S
O897        C898   1.258       .  A
C898       C1126   1.483       .  S
C899       C1154   1.491       .  S
C902       C1070   1.479       .  S
C903       C1098   1.475       .  S
C903        O904   1.258       .  A
C905        N906   1.359       .  A
C905        N910   1.360       .  A
C905       C1434   1.486   1_455  S
N906        C907   1.356       .  A
C907        N908   1.355       .  A
C907       C1117   1.474       .  S
N908        C909   1.356       .  A
C909        N910   1.358       .  A
C909       C1089   1.486       .  S
C911        N916   1.360       .  A
C911       C1061   1.478       .  S
N912        C913   1.358       .  A
C913       C1005   1.489       .  S
N914        C915   1.358       .  A
C915        N916   1.358       .  A
C915       C1042   1.494       .  S
O917        C932   1.261       .  A
O917       Al925   1.904       .  S
C918       C1201   1.473       .  S
C918        O928   1.261       .  A
C918        O919   1.260       .  A
O919       Al921   1.899       .  S
O920        C922   1.259       .  A
O920       Al921   1.888       .  S
Al921       O929   1.899       .  S
Al921       O931   1.896       .  S
Al921       O930   1.782       .  S
C922        C977   1.482       .  S
C922        O935   1.263       .  A
O923        C933   1.259       .  A
O923       Al925   1.898       .  S
O924        C937   1.259       .  A
O924       Al934   1.888       .  S
Al925       O938   1.916       .  S
Al925       O935   1.912       .  S
Al925       O930   1.788       .  S
O926        C933   1.261       .  A
O926       Al934   1.907       .  S
O927        C936   1.262       .  A
O927       Al934   1.903       .  S
O928       Al934   1.899       .  S
O929        C936   1.261       .  A
O930       Al934   1.784       .  S
O931        C932   1.260       .  A
C932       C1033   1.478       .  S
C933        C949   1.471       .  S
C936       C1238   1.481       .  S
C937       C1014   1.487       .  S
C937        O938   1.264       .  A
C939        N940   1.358       .  A
C939       C1257   1.481       .  S
N940        C941   1.356       .  A
C941        N942   1.357       .  A
C941        C986   1.485       .  S
C943        N944   1.355       .  A
C943        C958   1.480       .  S
C945        C946   1.405       .  A
C945        C950   1.404       .  A
C945        H955   1.084       .  S
C946        C951   1.479       .  S
C946        C947   1.412       .  A
C947        C948   1.398       .  A
C947        N952   1.438       .  S
C948        C949   1.401       .  A
C948        H953   1.084       .  S
C949        C950   1.410       .  A
C950        N954   1.433       .  S
C951        C956   1.406       .  A
C951        C960   1.402       .  A
N952        O967   1.262       .  A
N952        O968   1.263       .  A
N954        O965   1.262       .  A
N954        O966   1.263       .  A
C956        C957   1.401       .  A
C956        N961   1.430       .  S
C957        C958   1.408       .  A
C957        H962   1.083       .  S
C958        C959   1.412       .  A
C959        C960   1.398       .  A
C959        N963   1.433       .  S
C960        H964   1.084       .  S
N961        O971   1.262       .  A
N961        O972   1.262       .  A
N963        O970   1.262       .  A
C973        C974   1.397       .  A
C973        C978   1.399       .  A
C973        H983   1.084       .  S
C974        C979   1.470       .  S
C974        C975   1.404       .  A
C975        C976   1.398       .  A
C975        N980   1.430       .  S
C976        C977   1.408       .  A
C976        H981   1.084       .  S
C977        C978   1.416       .  A
C978        N982   1.432       .  S
C979        C984   1.404       .  A
C979        C988   1.399       .  A
N980        O995   1.262       .  A
N980        O996   1.262       .  A
N982        O993   1.262       .  A
N982        O994   1.262       .  A
C984        C985   1.393       .  A
C984        N989   1.430       .  S
C985        C986   1.407       .  A
C985        H990   1.083       .  S
C986        C987   1.419       .  A
C987        C988   1.403       .  A
C987        N991   1.431       .  S
C988        H992   1.084       .  S
N989        O999   1.262       .  A
N989       O1000   1.262       .  A
N991        O997   1.262       .  A
N991        O998   1.262       .  A
C1001      C1002   1.399       .  A
C1001      C1006   1.403       .  A
C1001      H1011   1.084       .  S
C1002      C1007   1.474       .  S
C1002      C1003   1.404       .  A
C1003      C1004   1.397       .  A
C1003      N1008   1.429       .  S
C1004      C1005   1.409       .  A
C1004      H1009   1.084       .  S
C1005      C1006   1.417       .  A
C1006      N1010   1.428       .  S
C1007      C1012   1.403       .  A
C1007      C1016   1.399       .  A
N1008      O1023   1.262       .  A
N1008      O1024   1.262       .  A
N1010      O1021   1.262       .  A
N1010      O1022   1.262       .  A
C1012      C1013   1.399       .  A
C1012      N1017   1.429       .  S
C1013      C1014   1.409       .  A
C1013      H1018   1.084       .  S
C1014      C1015   1.419       .  A
C1015      C1016   1.401       .  A
C1015      N1019   1.431       .  S
C1016      H1020   1.084       .  S
N1017      O1027   1.262       .  A
N1017      O1028   1.262       .  A
N1019      O1025   1.262       .  A
N1019      O1026   1.262       .  A
C1029      C1030   1.402       .  A
C1029      C1034   1.404       .  A
C1029      H1039   1.084       .  S
C1030      C1035   1.478       .  S
C1030      C1031   1.409       .  A
C1031      C1032   1.396       .  A
C1031      N1036   1.434       .  S
C1032      C1033   1.404       .  A
C1032      H1037   1.084       .  S
C1033      C1034   1.412       .  A
C1034      N1038   1.429       .  S
C1035      C1040   1.408       .  A
C1035      C1044   1.399       .  A
N1036      O1051   1.262       .  A
N1036      O1052   1.262       .  A
N1038      O1049   1.262       .  A
N1038      O1050   1.262       .  A
C1040      C1041   1.398       .  A
C1040      N1045   1.435       .  S
C1041      C1042   1.409       .  A
C1041      H1046   1.083       .  S
C1042      C1043   1.422       .  A
C1043      C1044   1.405       .  A
C1043      N1047   1.432       .  S
C1044      H1048   1.084       .  S
N1045      O1055   1.262       .  A
N1045      O1056   1.262       .  A
N1047      O1053   1.262       .  A
N1047      O1054   1.262       .  A
C1057      C1062   1.403       .  A
C1057      H1067   1.084       .  S
C1058      C1063   1.483       .  S
C1058      C1059   1.412   1_554  A
C1059      C1060   1.402       .  A
C1059      N1064   1.438       .  S
C1060      H1065   1.083       .  S
C1061      C1062   1.417       .  A
C1062      N1066   1.437       .  S
C1063      C1068   1.412   1_554  A
N1064      O1079   1.263       .  A
N1064      O1080   1.263       .  A
N1066      O1077   1.263       .  A
N1066      O1078   1.262       .  A
C1068      C1069   1.401       .  A
C1068      N1073   1.436       .  S
C1069      H1074   1.083       .  S
C1070      C1071   1.413       .  A
C1071      C1072   1.402       .  A
C1071      N1075   1.430       .  S
C1072      H1076   1.084       .  S
N1073      O1083   1.262       .  A
N1073      O1084   1.262       .  A
N1075      O1081   1.262       .  A
N1075      O1082   1.262       .  A
C1085      C1086   1.403       .  A
C1085      C1090   1.398       .  A
C1085      H1095   1.084       .  S
C1086      C1091   1.488       .  S
C1086      C1087   1.413       .  A
C1087      C1088   1.404       .  A
C1087      N1092   1.435       .  S
C1088      C1089   1.407       .  A
C1088      H1093   1.084       .  S
C1089      C1090   1.416       .  A
C1090      N1094   1.435       .  S
C1091      C1096   1.416       .  A
C1091      C1100   1.405       .  A
N1092      O1107   1.263       .  A
N1092      O1108   1.262       .  A
N1094      O1105   1.263       .  A
N1094      O1106   1.262       .  A
C1096      C1097   1.402       .  A
C1096      N1101   1.437       .  S
C1097      C1098   1.402       .  A
C1097      H1102   1.084       .  S
C1098      C1099   1.409       .  A
C1099      C1100   1.399       .  A
C1099      N1103   1.429       .  S
C1100      H1104   1.084       .  S
N1101      O1111   1.263       .  A
N1101      O1112   1.263       .  A
N1103      O1109   1.262       .  A
N1103      O1110   1.262       .  A
C1113      C1114   1.399       .  A
C1113      C1118   1.399       .  A
C1113      H1123   1.084       .  S
C1114      C1119   1.470       .  S
C1114      C1115   1.404       .  A
C1115      C1116   1.399       .  A
C1115      N1120   1.428       .  S
C1116      C1117   1.405       .  A
C1116      H1121   1.084       .  S
C1117      C1118   1.415       .  A
C1118      N1122   1.436       .  S
C1119      C1124   1.404       .  A
C1119      C1128   1.398       .  A
N1120      O1135   1.262       .  A
N1120      O1136   1.261       .  A
N1122      O1133   1.263       .  A
N1122      O1134   1.262       .  A
C1124      C1125   1.397       .  A
C1124      N1129   1.429       .  S
C1125      C1126   1.407       .  A
C1125      H1130   1.084       .  S
C1126      C1127   1.418       .  A
C1127      C1128   1.398       .  A
C1127      N1131   1.430       .  S
C1128      H1132   1.084       .  S
N1129      O1139   1.262       .  A
N1129      O1140   1.262       .  A
N1131      O1137   1.262       .  A
N1131      O1138   1.262       .  A
C1141      C1142   1.402       .  A
C1141      C1146   1.401       .  A
C1141      H1151   1.084       .  S
C1142      C1147   1.482       .  S
C1142      C1143   1.412       .  A
C1143      C1144   1.401       .  A
C1143      N1148   1.437       .  S
C1144      C1145   1.408       .  A
C1144      H1149   1.083       .  S
C1145      C1146   1.415       .  A
C1146      N1150   1.429       .  S
C1147      C1152   1.411       .  A
C1147      C1156   1.400       .  A
N1148      O1163   1.263       .  A
N1148      O1164   1.263       .  A
N1150      O1161   1.262       .  A
N1150      O1162   1.262       .  A
C1152      C1153   1.403       .  A
C1152      N1157   1.437       .  S
C1153      C1154   1.409       .  A
C1153      H1158   1.083       .  S
C1154      C1155   1.418       .  A
C1155      C1156   1.401       .  A
C1155      N1159   1.431       .  S
C1156      H1160   1.084       .  S
N1157      O1167   1.263       .  A
N1157      O1168   1.263       .  A
N1159      O1165   1.262       .  A
N1159      O1166   1.262       .  A
C1169      C1170   1.397       .  A
C1169      C1174   1.395       .  A
C1169      H1179   1.084       .  S
C1170      C1175   1.473       .  S
C1170      C1171   1.407       .  A
C1171      C1172   1.404       .  A
C1171      N1176   1.428       .  S
C1172      C1173   1.405       .  A
C1172      H1177   1.084       .  S
C1173      C1174   1.413       .  A
C1174      N1178   1.432       .  S
C1175      C1180   1.403       .  A
C1175      C1184   1.398       .  A
N1176      O1191   1.262       .  A
N1176      O1192   1.262       .  A
N1178      O1189   1.262       .  A
N1178      O1190   1.262       .  A
C1180      C1181   1.395       .  A
C1180      N1185   1.429       .  S
C1181      C1182   1.409       .  A
C1181      H1186   1.083       .  S
C1182      C1183   1.422       .  A
C1183      C1184   1.405       .  A
C1183      N1187   1.431       .  S
C1184      H1188   1.084       .  S
N1185      O1195   1.262       .  A
N1185      O1196   1.262       .  A
N1187      O1193   1.262       .  A
N1187      O1194   1.262       .  A
C1197      C1198   1.403       .  A
C1197      C1202   1.397       .  A
C1197      H1207   1.104       .  S
C1198      C1203   1.482       .  S
C1198      C1199   1.416       .  A
C1199      C1200   1.397       .  A
C1199      N1204   1.437       .  S
C1200      C1201   1.400       .  A
C1200      H1205   1.116       .  S
C1201      C1202   1.409       .  A
C1202      N1206   1.430       .  S
C1203      C1208   1.415       .  A
C1203      C1212   1.402       .  A
N1204      O1219   1.262       .  A
N1204      O1220   1.263       .  A
N1206      O1217   1.262       .  A
N1206      O1218   1.262       .  A
C1208      C1209   1.402   1_565  A
C1208      N1213   1.438       .  S
C1209      C1210   1.404       .  A
C1209      H1214   1.082       .  S
C1210      C1211   1.415       .  A
C1211      C1212   1.401   1_545  A
C1211      N1215   1.439       .  S
C1212      H1216   1.081       .  S
N1213      O1223   1.262       .  A
N1213      O1224   1.263       .  A
N1215      O1221   1.263       .  A
N1215      O1222   1.263       .  A
C1225      C1226   1.402       .  A
C1225      C1230   1.398       .  A
C1225      H1235   1.084       .  S
C1226      C1231   1.486       .  S
C1226      C1227   1.410       .  A
C1227      C1228   1.403       .  A
C1227      N1232   1.433       .  S
C1228      C1229   1.410       .  A
C1228      H1233   1.083       .  S
C1229      C1230   1.416       .  A
C1230      N1234   1.428       .  S
C1231      C1236   1.412       .  A
C1231      C1240   1.406       .  A
N1232      O1247   1.262       .  A
N1232      O1248   1.262       .  A
N1234      O1245   1.262       .  A
N1234      O1246   1.262       .  A
C1236      C1237   1.397       .  A
C1236      N1241   1.435       .  S
C1237      C1238   1.405       .  A
C1237      H1242   1.084       .  S
C1238      C1239   1.414       .  A
C1239      C1240   1.405       .  A
C1239      N1243   1.434       .  S
C1240      H1244   1.084       .  S
N1241      O1251   1.262       .  A
N1241      O1252   1.263       .  A
N1243      O1249   1.263       .  A
N1243      O1250   1.262       .  A
C1253      C1254   1.402       .  A
C1254      C1259   1.483       .  S
C1254      C1255   1.414       .  A
C1255      C1256   1.404       .  A
C1255      N1260   1.438       .  S
C1256      C1257   1.406       .  A
C1256      H1261   1.083       .  S
C1258      N1262   1.431       .  S
C1259      C1264   1.417       .  A
N1260      O1275   1.263       .  A
N1260      O1276   1.263       .  A
N1262      O1273   1.262       .  A
N1262      O1274   1.262       .  A
C1264      C1265   1.403       .  A
C1264      N1269   1.437       .  S
C1265      C1266   1.402       .  A
C1265      H1270   1.084       .  S
C1267      C1268   1.397       .  A
C1267      N1271   1.430       .  S
C1268      H1272   1.084       .  S
N1269      O1279   1.262       .  A
N1269      O1280   1.263       .  A
N1271      O1277   1.262       .  A
N1271      O1278   1.262       .  A
C1281      C1282   1.401       .  A
C1281      C1286   1.399       .  A
C1281      H1291   1.084       .  S
C1282      C1287   1.477       .  S
C1282      C1283   1.407       .  A
C1283      C1284   1.401       .  A
C1283      N1288   1.432       .  S
C1284      C1285   1.407       .  A
C1284      H1289   1.084       .  S
C1285      C1286   1.416       .  A
C1286      N1290   1.433       .  S
C1287      C1292   1.405       .  A
C1287      C1296   1.402   1_655  A
N1288      O1303   1.262       .  A
N1288      O1304   1.262       .  A
N1290      O1301   1.262       .  A
N1290      O1302   1.263       .  A
C1292      C1293   1.395       .  A
C1292      N1297   1.434       .  S
C1293      C1294   1.410   1_655  A
C1293      H1298   1.083       .  S
C1294      C1295   1.419       .  A
C1295      C1296   1.405       .  A
C1295      N1299   1.430       .  S
C1296      H1300   1.084       .  S
N1297      O1307   1.262       .  A
N1297      O1308   1.263       .  A
N1299      O1305   1.262       .  A
N1299      O1306   1.262       .  A
C1309      C1310   1.401       .  A
C1309      C1314   1.407   1_655  A
C1309      H1319   1.084       .  S
C1310      C1315   1.476       .  S
C1310      C1311   1.408       .  A
C1311      C1312   1.396       .  A
C1311      N1316   1.435       .  S
C1312      C1313   1.406   1_655  A
C1312      H1317   1.084       .  S
C1313      C1314   1.416       .  A
C1314      N1318   1.436       .  S
C1315      C1320   1.408       .  A
C1315      C1324   1.399       .  A
N1316      O1331   1.262       .  A
N1316      O1332   1.262       .  A
N1318      O1329   1.263       .  A
N1318      O1330   1.263       .  A
C1320      C1321   1.398       .  A
C1320      N1325   1.432       .  S
C1321      C1322   1.406       .  A
C1321      H1326   1.084       .  S
C1322      C1323   1.416       .  A
C1323      C1324   1.400       .  A
C1323      N1327   1.429       .  S
C1324      H1328   1.084       .  S
N1325      O1335   1.262       .  A
N1325      O1336   1.262       .  A
N1327      O1333   1.262       .  A
N1327      O1334   1.262       .  A
C1337      C1338   1.401       .  A
C1337      C1342   1.397       .  A
C1337      H1347   1.084       .  S
C1338      C1343   1.477   1_565  S
C1338      C1339   1.410       .  A
C1339      C1340   1.400       .  A
C1339      N1344   1.431   1_565  S
C1340      C1341   1.401       .  A
C1340      H1345   1.084       .  S
C1341      C1342   1.412       .  A
C1342      N1346   1.430       .  S
C1343      C1348   1.406       .  A
C1343      C1352   1.401   1_545  A
N1344      O1359   1.262   1_545  A
N1344      O1360   1.262       .  A
N1346      O1357   1.262       .  A
N1346      O1358   1.262       .  A
C1348      C1349   1.399       .  A
C1348      N1353   1.430       .  S
C1349      C1350   1.406       .  A
C1349      H1354   1.084       .  S
C1350      C1351   1.416       .  A
C1351      C1352   1.401   1_545  A
C1351      N1355   1.438       .  S
C1352      H1356   1.084       .  S
N1353      O1363   1.262       .  A
N1353      O1364   1.262       .  A
N1355      O1361   1.263   1_545  A
N1355      O1362   1.262       .  A
C1365      C1366   1.402       .  A
C1365      C1370   1.403       .  A
C1365      H1375   1.084       .  S
C1366      C1371   1.478       .  S
C1366      C1367   1.407       .  A
C1367      C1368   1.396       .  A
C1367      N1372   1.431       .  S
C1368      C1369   1.406       .  A
C1368      H1373   1.084       .  S
C1369      C1370   1.415       .  A
C1370      N1374   1.429       .  S
C1371      C1376   1.404   1_565  A
C1371      C1380   1.398       .  A
N1372      O1387   1.262       .  A
N1372      O1388   1.262       .  A
N1374      O1385   1.262       .  A
N1374      O1386   1.262       .  A
C1376      C1377   1.401       .  A
C1376      N1381   1.429       .  S
C1377      C1378   1.412       .  A
C1377      H1382   1.083       .  S
C1378      C1379   1.421   1_545  A
C1379      C1380   1.398       .  A
C1379      N1383   1.431       .  S
C1380      H1384   1.085       .  S
N1381      O1391   1.262       .  A
N1381      O1392   1.262       .  A
N1383      O1389   1.262       .  A
N1383      O1390   1.262       .  A
C1393      C1394   1.403       .  A
C1393      C1398   1.404       .  A
C1393      H1403   1.084       .  S
C1394      C1399   1.482       .  S
C1395      C1396   1.397       .  A
C1395      N1400   1.433       .  S
C1396      H1401   1.084       .  S
C1397      C1398   1.418       .  A
C1398      N1402   1.435       .  S
C1399      C1404   1.409       .  A
N1400      O1415   1.262       .  A
N1400      O1416   1.262       .  A
N1402      O1413   1.262       .  A
N1402      O1414   1.263       .  A
C1404      C1405   1.397       .  A
C1404      N1409   1.433       .  S
C1405      C1406   1.406       .  A
C1405      H1410   1.084       .  S
C1407      C1408   1.401       .  A
C1407      N1411   1.431       .  S
C1408      H1412   1.084       .  S
N1409      O1419   1.262       .  A
N1409      O1420   1.262       .  A
N1411      O1417   1.262       .  A
N1411      O1418   1.262       .  A
C1421      C1422   1.401       .  A
C1421      C1426   1.395       .  A
C1421      H1431   1.084       .  S
C1422      C1427   1.482       .  S
C1422      C1423   1.414       .  A
C1423      C1424   1.404       .  A
C1423      N1428   1.438       .  S
C1424      C1425   1.408       .  A
C1424      H1429   1.084       .  S
C1425      C1426   1.414       .  A
C1426      N1430   1.429       .  S
C1427      C1432   1.414       .  A
C1427      C1436   1.401       .  A
N1428      O1443   1.262       .  A
N1428      O1444   1.263       .  A
N1430      O1441   1.262       .  A
N1430      O1442   1.262       .  A
C1432      C1433   1.403       .  A
C1432      N1437   1.438       .  S
C1433      C1434   1.408       .  A
C1433      H1438   1.083       .  S
C1434      C1435   1.414       .  A
C1435      C1436   1.396       .  A
C1435      N1439   1.431       .  S
C1436      H1440   1.084       .  S
N1437      O1447   1.262       .  A
N1437      O1448   1.263       .  A
N1439      O1445   1.262       .  A
N1439      O1446   1.262       .  A
C1449      C1450   1.400       .  A
C1449      C1454   1.395       .  A
C1449      H1459   1.084       .  S
C1450      C1455   1.478       .  S
C1450      C1451   1.413       .  A
C1451      C1452   1.404       .  A
C1451      N1456   1.437       .  S
C1452      C1453   1.406       .  A
C1452      H1457   1.084       .  S
C1453      C1454   1.412       .  A
C1454      N1458   1.430       .  S
C1455      C1460   1.411       .  A
C1455      C1464   1.400       .  A
N1456      O1471   1.263       .  A
N1456      O1472   1.263       .  A
N1458      O1469   1.262       .  A
N1458      O1470   1.262       .  A
C1460      C1461   1.400       .  A
C1460      N1465   1.437       .  S
C1461      C1462   1.409       .  A
C1461      H1466   1.083       .  S
C1462      C1463   1.413       .  A
C1463      C1464   1.399       .  A
C1463      N1467   1.429       .  S
C1464      H1468   1.084       .  S
N1465      O1475   1.263       .  A
N1465      O1476   1.262       .  A
N1467      O1473   1.262       .  A
N1467      O1474   1.262       .  A
C1477      C1478   1.400       .  A
C1477      C1482   1.407       .  A
C1477      H1487   1.084       .  S
C1478      C1483   1.477       .  S
C1478      C1479   1.405       .  A
C1479      C1480   1.396       .  A
C1479      N1484   1.433       .  S
C1480      C1481   1.411       .  A
C1480      H1485   1.083       .  S
C1481      C1482   1.421       .  A
C1482      N1486   1.432       .  S
C1483      C1488   1.408       .  A
C1483      C1492   1.399       .  A
N1484      O1499   1.262       .  A
N1484      O1500   1.262       .  A
N1486      O1497   1.262       .  A
N1486      O1498   1.262       .  A
C1488      C1489   1.401       .  A
C1488      N1493   1.434       .  S
C1489      C1490   1.408       .  A
C1489      H1494   1.084       .  S
C1490      C1491   1.417       .  A
C1491      C1492   1.400       .  A
C1491      N1495   1.429       .  S
C1492      H1496   1.084       .  S
N1493      O1503   1.262       .  A
N1493      O1504   1.262       .  A
N1495      O1501   1.262       .  A
N1495      O1502   1.262       .  A
C1505      C1506   1.400       .  A
C1505      C1510   1.398       .  A
C1505      H1515   1.084       .  S
C1506      C1511   1.474       .  S
C1506      C1507   1.403       .  A
C1507      C1508   1.400       .  A
C1507      N1512   1.430       .  S
C1508      C1509   1.411       .  A
C1508      H1513   1.083       .  S
C1509      C1510   1.416       .  A
C1510      N1514   1.432       .  S
C1511      C1516   1.404       .  A
C1511      C1520   1.404       .  A
N1512      O1527   1.262       .  A
N1512      O1528   1.262       .  A
N1514      O1525   1.262       .  A
N1514      O1526   1.262       .  A
C1516      C1517   1.393       .  A
C1516      N1521   1.431       .  S
C1517      C1518   1.405       .  A
C1517      H1522   1.084       .  S
C1518      C1519   1.412       .  A
C1519      C1520   1.404       .  A
C1519      N1523   1.429       .  S
C1520      H1524   1.084       .  S
N1521      O1531   1.262       .  A
N1521      O1532   1.262       .  A
N1523      O1529   1.262       .  A
N1523      O1530   1.262       .  A
C1533      C1534   1.396       .  A
C1533      C1538   1.397       .  A
C1533      H1543   1.085       .  S
C1534      C1539   1.478       .  S
C1534      C1535   1.404       .  A
C1535      C1536   1.405       .  A
C1535      N1540   1.429       .  S
C1536      C1537   1.412       .  A
C1536      H1541   1.084       .  S
C1537      C1538   1.422       .  A
C1538      N1542   1.432       .  S
C1539      C1544   1.406       .  A
C1539      C1548   1.402       .  A
N1540      O1555   1.262       .  A
N1540      O1556   1.262       .  A
N1542      O1553   1.262       .  A
N1542      O1554   1.262       .  A
C1544      C1545   1.395       .  A
C1544      N1549   1.432       .  S
C1545      C1546   1.406       .  A
C1545      H1550   1.084       .  S
C1546      C1547   1.416       .  A
C1547      C1548   1.408       .  A
C1547      N1551   1.433       .  S
C1548      H1552   1.084       .  S
N1549      O1559   1.262       .  A
N1549      O1560   1.262       .  A
N1551      O1557   1.262       .  A
N1551      O1558   1.263       .  A
C1561      C1562   1.397       .  A
C1561      C1566   1.401       .  A
C1561      H1571   1.084       .  S
C1562      C1567   1.472       .  S
C1562      C1563   1.407       .  A
C1563      C1564   1.397       .  A
C1563      N1568   1.435       .  S
C1564      C1565   1.410       .  A
C1564      H1569   1.083       .  S
C1565      C1566   1.420       .  A
C1566      N1570   1.430       .  S
C1567      C1572   1.407       .  A
C1567      C1576   1.401       .  A
N1568      O1583   1.262       .  A
N1568      O1584   1.262       .  A
N1570      O1581   1.262       .  A
N1570      O1582   1.262       .  A
C1572      C1573   1.397       .  A
C1572      N1577   1.435       .  S
C1573      C1574   1.409       .  A
C1573      H1578   1.084       .  S
C1574      C1575   1.414       .  A
C1575      C1576   1.400       .  A
C1575      N1579   1.429       .  S
C1576      H1580   1.084       .  S
N1577      O1587   1.262       .  A
N1577      O1588   1.263       .  A
N1579      O1585   1.262       .  A
N1579      O1586   1.262       .  A
C1589      C1594   1.396       .  A
C1589      H1599   1.084       .  S
C1590      C1595   1.482       .  S
C1590      C1591   1.413       .  A
C1591      C1592   1.406       .  A
C1591      N1596   1.436       .  S
C1592      C1593   1.407       .  A
C1592      H1597   1.084       .  S
C1594      N1598   1.431       .  S
C1595      C1600   1.413       .  A
C1595      C1604   1.399       .  A
N1596      O1611   1.262       .  A
N1596      O1612   1.263       .  A
N1598      O1609   1.262       .  A
N1598      O1610   1.262       .  A
C1600      N1605   1.436       .  S
C1601      H1606   1.084       .  S
C1602      C1603   1.415       .  A
C1603      C1604   1.397       .  A
C1603      N1607   1.429       .  S
C1604      H1608   1.084       .  S
N1605      O1616   1.263       .  A
N1607      O1613   1.262       .  A
N1607      O1614   1.261       .  A
