geometry optimzed in LAMMPS
_audit_creation_date              2020-11-30 
_audit_creation_method            'lammps2cif' 
_symmetry_space_group_name_H-M    'P1' 
_symmetry_Int_Tables_number       1 
_symmetry_cell_setting            triclinic 
loop_ 
_symmetry_equiv_pos_as_xyz 
  x,y,z 
_cell_length_a                    34.61406396 
_cell_length_b                    34.658894529780554 
_cell_length_c                    53.645123515397415 
_cell_angle_alpha                 90.03453807037297 
_cell_angle_beta                  89.48542314103182 
_cell_angle_gamma                 119.98428230565057 
loop_ 
_atom_site_label 
_atom_site_type_symbol 
_atom_site_fract_x 
_atom_site_fract_y 
_atom_site_fract_z 
_atom_site_charge 
C1          C  0.09267080  0.39166318  0.91488150    -0.01200
C2          C  0.29055113  0.40880212  0.91643559    -0.01200
C3          C  0.09226159  0.19455147  0.91407638    -0.01200
O4          O  0.15600546  0.38640991  0.74480168    -0.80500
C5          C  0.12175957  0.24990947  0.81034415     0.98800
O6          O  0.09346967  0.24753596  0.79483291    -0.69600
O7          O  0.08818121  0.31811673  0.80232290    -0.73200
Al8        Al  0.09812908  0.29454559  0.77324617     1.49000
C9          C  0.10649548  0.35830828  0.80885896     0.94100
O10         O  0.20645750  0.39867154  0.80587202    -0.79400
O11         O  0.22664952  0.33891275  0.75035250    -0.73000
Al12       Al  0.17983242  0.38969476  0.77512751     1.90100
O13         O  0.23116407  0.35148019  0.80351200    -0.72100
O14         O  0.16222759  0.26166556  0.75484981    -0.71900
O15         O  0.16263091  0.27369537  0.80569771    -0.77600
O16         O  0.10554028  0.26972952  0.74427757    -0.75800
O17         O  0.15716617  0.33068069  0.77590457    -1.11900
O18         O  0.08810992  0.33225014  0.75072840    -0.71100
C19         C  0.11715164  0.36332327  0.73727387     0.99600
C20         C  0.22644416  0.38077115  0.81528849     0.96000
Al21       Al  0.19332575  0.30830382  0.77853280     1.55600
O22         O  0.13155559  0.38862450  0.79365978    -0.75700
C23         C  0.13448822  0.25923119  0.73885595     1.00200
C24         C  0.23690606  0.37654526  0.74205658     0.95100
O25         O  0.23229788  0.40340074  0.75597942    -0.81100
N26         N  0.32076150  0.01186794  0.95251245    -0.35300
N27         N  0.20833621  0.43127600  0.92382256    -0.55900
N28         N  0.17508660  0.99547123  0.95619108    -0.35300
N29         N  0.28545724  0.07414298  0.98428756    -0.55900
C30         C  0.31149094  0.46926048  0.95135795     0.28300
C31         C  0.34482352  0.03166086  0.97325746     0.28300
C32         C  0.15141431  0.47552012  0.93502013     0.28300
C33         C  0.18391839  0.03841785  0.95644823     0.28300
C34         C  0.23565841  0.42619336  0.93980694     0.36900
C35         C  0.16881655  0.41679154  0.93598588     0.36900
C36         C  0.32570503  0.08926474  0.97280660     0.36900
C37         C  0.25950933  0.08154494  0.96842601     0.36900
C38         C  0.32734798  0.45971891  0.97252873    -0.20600
C39         C  0.34847076  0.99912427  0.98651646    -0.20600
C40         C  0.15089403  0.50876832  0.92056492    -0.20600
C41         C  0.16995298  0.04682302  0.93410796    -0.20600
C42         C  0.21514034  0.41233458  0.96283654    -0.21700
C43         C  0.17302949  0.40641763  0.96041356    -0.21700
C44         C  0.32474500  0.10497787  0.94921585    -0.21700
C45         C  0.28261526  0.09945057  0.94628003    -0.21700
C46         C  0.28059094  0.43821678  0.93462321    -0.17000
C47         C  0.35679744  0.07621003  0.98041283    -0.17000
C48         C  0.21477773  0.07115681  0.97331768    -0.17000
C49         C  0.13745666  0.42938213  0.92865354    -0.17000
H50         H  0.32054978  0.42745765  0.97901399     0.15900
H51         H  0.36190861  0.00059868  0.00456044     0.15900
H52         H  0.14138859  0.50662006  0.90129386     0.15900
H53         H  0.17655285  0.07892737  0.92725564     0.15900
H54         H  0.22955520  0.40820367  0.97973466     0.14200
H55         H  0.15009363  0.40016802  0.97566912     0.14200
H56         H  0.35063743  0.11627079  0.93506140     0.14200
H57         H  0.27035594  0.10790258  0.92988349     0.14200
H58         H  0.31011615  0.02619085  0.93909262     0.27400
H59         H  0.18511039  0.98158171  0.97017246     0.27400
C60         C  0.20365089  0.10372182  0.98953156    -0.01200
C61         C  0.39751716  0.31389392  0.99327798    -0.01200
C62         C  0.39510666  0.11013146  0.99814162    -0.01200
O63         O  0.38833790  0.16879315  0.15326836    -0.80500
C64         C  0.24767122  0.13254091  0.09619522     0.98800
O65         O  0.26415524  0.11086961  0.10538832    -0.69600
O66         O  0.33693248  0.11317894  0.11545564    -0.73200
Al67       Al  0.29288725  0.11764233  0.13521917     1.49000
C68         C  0.35905867  0.14062842  0.09835278     0.94100
O69         O  0.38485228  0.25667954  0.11225231    -0.79400
O70         O  0.32636651  0.25056701  0.15686009    -0.73000
Al71       Al  0.37934593  0.20880394  0.13267203     1.90100
O72         O  0.31592663  0.23691360  0.10458255    -0.72100
O73         O  0.25697128  0.17520889  0.16203176    -0.71900
O74         O  0.24541070  0.16242550  0.10902955    -0.77600
O75         O  0.24304227  0.10783482  0.15539672    -0.75800
O76         O  0.31995133  0.17717051  0.13368176    -1.11900
O77         O  0.32001790  0.12060388  0.16496853    -0.71100
C78         C  0.36111019  0.14103435  0.16889486     0.99600
C79         C  0.35618804  0.25759594  0.09836170     0.96000
Al80       Al  0.28811593  0.20419092  0.13319873     1.55600
O81         O  0.38001249  0.18172524  0.10275644    -0.75700
C82         C  0.24117232  0.13592885  0.16942515     1.00200
C83         C  0.35931558  0.25490638  0.16951014     0.95100
O84         O  0.38181812  0.23771016  0.16211152    -0.81100
N85         N  0.49422292  0.32236591  0.95123595    -0.35300
N86         N  0.41769485  0.22280497  0.97960846    -0.55900
N87         N  0.49704044  0.18878998  0.95918126    -0.35300
N88         N  0.07446612  0.28195363  0.92359284    -0.55900
C89         C  0.47702053  0.33362740  0.97098743     0.28300
C90         C  0.03886284  0.35064240  0.95034966     0.28300
C91         C  0.45412051  0.15582163  0.96306589     0.28300
C92         C  0.01546444  0.17803366  0.93972416     0.28300
C93         C  0.43829964  0.26401273  0.99036199     0.36900
C94         C  0.43451214  0.19863778  0.99043402     0.36900
C95         C  0.08365867  0.31800363  0.93793555     0.36900
C96         C  0.08067796  0.25246197  0.93727816     0.36900
C97         C  0.51375454  0.36636300  0.98397875    -0.20600
C98         C  0.05168502  0.37942550  0.96998731    -0.20600
C99         C  0.44376831  0.12391332  0.94501809    -0.20600
C100        C  0.98117387  0.13887251  0.92979487    -0.20600
C101        C  0.47339688  0.26736428  0.00453857    -0.21700
C102        C  0.47070156  0.22672185  0.00471557    -0.21700
C103        C  0.09318239  0.30915191  0.96172330    -0.21700
C104        C  0.09336446  0.26934600  0.96099786    -0.21700
C105        C  0.43521604  0.30226006  0.98213019    -0.17000
C106        C  0.06844341  0.34926582  0.93269667    -0.17000
C107        C  0.06127079  0.20612303  0.93112944    -0.17000
C108        C  0.42500787  0.15549591  0.98249575    -0.17000
H109        H  0.51541795  0.37692697  0.00294414     0.15900
H110        H  0.08522068  0.40381047  0.97523647     0.15900
H111        H  0.41182963  0.09470619  0.94166087     0.15900
H112        H  0.98017492  0.12323562  0.91245831     0.15900
H113        H  0.50081666  0.29690851  0.01244997     0.14200
H114        H  0.49597023  0.22043349  0.01214111     0.14200
H115        H  0.09602400  0.32753119  0.97853175     0.14200
H116        H  0.09660294  0.25198702  0.97689563     0.14200
H117        H  0.47647874  0.29479405  0.93971757     0.27400
H118        H  0.51369639  0.21694928  0.97011560     0.27400
N119        N  0.30301061  0.31872184  0.95502128    -0.35300
N120        N  0.28069817  0.22604917  0.96458157    -0.55900
N121        N  0.18864945  0.19213197  0.94996503    -0.35300
N122        N  0.20459364  0.29095470  0.93627657    -0.55900
C123        C  0.34415146  0.32581011  0.96172908     0.28300
C124        C  0.30748924  0.35810851  0.94673319     0.28300
C125        C  0.18256200  0.15372335  0.96062624     0.28300
C126        C  0.14792318  0.18740865  0.94502188     0.28300
C127        C  0.32358310  0.24839861  0.97324607     0.36900
C128        C  0.26317391  0.18192060  0.97084716     0.36900
C129        C  0.23981580  0.32138665  0.92222504     0.36900
C130        C  0.18039069  0.25530438  0.92110936     0.36900
C131        C  0.37494968  0.36957691  0.95626489    -0.20600
C132        C  0.35203055  0.39055776  0.94987602    -0.20600
C133        C  0.13704911  0.12332359  0.96028819    -0.20600
C134        C  0.11574725  0.14612767  0.95360639    -0.20600
C135        C  0.33199818  0.21870330  0.98427800    -0.21700
C136        C  0.29658514  0.17791450  0.98179312    -0.21700
C137        C  0.23987571  0.30333098  0.89926717    -0.21700
C138        C  0.20407735  0.26118191  0.89908123    -0.21700
C139        C  0.35422323  0.29547590  0.97487669    -0.17000
C140        C  0.27582397  0.36246497  0.93087390    -0.17000
C141        C  0.14027292  0.21542849  0.92831798    -0.17000
C142        C  0.21642740  0.14723559  0.97242966    -0.17000
H143        H  0.41083975  0.38562060  0.95674595     0.15900
H144        H  0.36866302  0.42581318  0.94621272     0.15900
H145        H  0.11969312  0.08839087  0.96495365     0.15900
H146        H  0.08027705  0.13277117  0.95392091     0.15900
H147        H  0.35746686  0.22649740  0.99703104     0.14200
H148        H  0.29491675  0.15027306  0.99106390     0.14200
H149        H  0.26267846  0.31868252  0.88379132     0.14200
H150        H  0.19575112  0.23912834  0.88342785     0.14200
H151        H  0.27283034  0.28914212  0.95647780     0.27400
H152        H  0.21873377  0.21933800  0.94446375     0.27400
C153        C  0.03241368  0.27923718  0.33174601    -0.01200
C154        C  0.22703912  0.28511870  0.32997100    -0.01200
C155        C  0.23618196  0.48518025  0.33022817    -0.01200
O156        O  0.10999462  0.28645914  0.50219066    -0.80500
C157        C  0.20935905  0.42596922  0.43524378     0.98800
O158        O  0.17938888  0.42510810  0.44941458    -0.69600
O159        O  0.10907267  0.35076089  0.44242143    -0.73200
Al160      Al  0.13807976  0.37770636  0.47152014     1.49000
C161        C  0.08883964  0.31049302  0.43652674     0.94100
O162        O  0.16118234  0.28616382  0.44166096    -0.79400
O163        O  0.22854117  0.35018691  0.50098254    -0.73000
Al164      Al  0.13700176  0.28848725  0.47165883     1.90100
O165        O  0.23117310  0.33473637  0.44874070    -0.72100
O166        O  0.23363521  0.42511051  0.49225963    -0.71900
O167        O  0.23006526  0.40660725  0.44163687    -0.77600
O168        O  0.16494104  0.40797758  0.50060021    -0.75800
O169        O  0.16734521  0.34796540  0.47141888    -1.11900
O170        O  0.09090503  0.33629564  0.49345318    -0.71100
C171        C  0.09021178  0.30716717  0.50809874     0.99600
C172        C  0.20082494  0.30733046  0.43430693     0.96000
Al173      Al  0.22667417  0.37701218  0.47099795     1.55600
O174        O  0.08749953  0.28166229  0.45157386    -0.75700
C175        C  0.20549862  0.42863146  0.50594964     1.00200
C176        C  0.20660610  0.30961730  0.50641937     0.95100
O177        O  0.17987428  0.28217753  0.49077562    -0.81100
C178        C  0.12665092  0.07694825  0.25079579    -0.01200
C179        C  0.43032577  0.38011152  0.24962661    -0.01200
C180        C  0.43435136  0.08437907  0.24442759    -0.01200
O181        O  0.51266712  0.06679744  0.07550978    -0.80500
C182        C  0.45498607  0.42405597  0.14293747     0.98800
O183        O  0.42821131  0.43085159  0.13038413    -0.69600
O184        O  0.44145131  0.00614703  0.13456588    -0.73200
Al185      Al  0.44038423  0.47714960  0.10641585     1.49000
C186        C  0.46367826  0.04604485  0.14046596     0.94100
O187        O  0.05866892  0.06113202  0.13614753    -0.79400
O188        O  0.06192060  0.99725170  0.07798777    -0.73000
Al189      Al  0.03467910  0.06196147  0.10611604     1.90100
O190        O  0.07215634  0.00618318  0.13129342    -0.72100
O191        O  0.48605257  0.42681304  0.08179182    -0.71900
O192        O  0.49256740  0.43466094  0.13420778    -0.77600
O193        O  0.43333080  0.44390966  0.07914745    -0.75800
O194        O  0.50148387  0.00266640  0.10614906    -1.11900
O195        O  0.44168508  0.02016374  0.08305110    -0.71100
C196        C  0.47264470  0.04914629  0.06928275     0.99600
C197        C  0.07319398  0.03719438  0.14457176     0.96000
Al198      Al  0.02507352  0.46732531  0.10681634     1.55600
O199        O  0.49409865  0.07329978  0.12592596    -0.75700
C200        C  0.45381386  0.42606180  0.07034533     1.00200
C201        C  0.08322859  0.03756674  0.07227536     0.95100
O202        O  0.08350052  0.06605145  0.08697688    -0.81100
N203        N  0.14071110  0.17808681  0.29268843    -0.35300
N204        N  0.03934902  0.09910556  0.26143416    -0.55900
N205        N  0.01754010  0.17924802  0.28941510    -0.35300
N206        N  0.11785459  0.25712701  0.32140609    -0.55900
C207        C  0.14556765  0.14379964  0.28362440     0.28300
C208        C  0.17980006  0.21042397  0.30222158     0.28300
C209        C  0.97978720  0.14723819  0.27844088     0.28300
C210        C  0.00844220  0.20757285  0.30216542     0.28300
C211        C  0.08358378  0.12201350  0.25616979     0.36900
C212        C  0.02168279  0.12401128  0.25274596     0.36900
C213        C  0.15273758  0.26354590  0.30650638     0.36900
C214        C  0.08743836  0.26057686  0.30705954     0.36900
C215        C  0.18762199  0.15215835  0.29032984    -0.20600
C216        C  0.20949504  0.19429772  0.30087614    -0.20600
C217        C  0.44511928  0.15257375  0.28643294    -0.20600
C218        C  0.96234717  0.18974669  0.30111105    -0.20600
C219        C  0.09461840  0.16398557  0.24714709    -0.21700
C220        C  0.05607874  0.16493736  0.24465900    -0.21700
C221        C  0.14295355  0.26858184  0.28213300    -0.21700
C222        C  0.10236945  0.26735482  0.28249752    -0.21700
C223        C  0.11581588  0.11153868  0.26549535    -0.17000
C224        C  0.18559452  0.25155137  0.31315177    -0.17000
C225        C  0.04238943  0.24707549  0.31463057    -0.17000
C226        C  0.97869872  0.11749039  0.25955420    -0.17000
H227        H  0.20291037  0.13223171  0.28633970     0.15900
H228        H  0.24307554  0.20946950  0.30725150     0.15900
H229        H  0.41115037  0.13384452  0.28169557     0.15900
H230        H  0.44078619  0.19913765  0.31040443     0.15900
H231        H  0.12767744  0.19204203  0.24386144     0.14200
H232        H  0.05393990  0.19415059  0.23987114     0.14200
H233        H  0.16200443  0.27032897  0.26564332     0.14200
H234        H  0.08426894  0.26822772  0.26636564     0.14200
H235        H  0.11127665  0.17925839  0.29284682     0.27400
H236        H  0.04843289  0.18114561  0.28901220     0.27400
N237        N  0.33607233  0.49809654  0.28984977    -0.35300
N238        N  0.25394805  0.39475662  0.32055783    -0.55900
N239        N  0.32996719  0.37260330  0.28856893    -0.35300
N240        N  0.39427195  0.46573867  0.27203792    -0.55900
C241        C  0.30019659  0.50162976  0.29733199     0.28300
C242        C  0.36368949  0.53434958  0.27552405     0.28300
C243        C  0.29905401  0.33400163  0.30018691     0.28300
C244        C  0.36502066  0.36773392  0.28091669     0.28300
C245        C  0.25055288  0.42480917  0.30582207     0.36900
C246        C  0.24506634  0.35873635  0.30630506     0.36900
C247        C  0.41923003  0.50953056  0.26483930     0.36900
C248        C  0.41689144  0.44477043  0.26437070     0.36900
C249        C  0.30314389  0.04031474  0.28778734    -0.20600
C250        C  0.34242019  0.06086277  0.27464964    -0.20600
C251        C  0.31506615  0.30458886  0.29941715    -0.20600
C252        C  0.35646842  0.32615960  0.28845259    -0.20600
C253        C  0.24202287  0.40884822  0.28161938    -0.21700
C254        C  0.23854067  0.36742758  0.28194143    -0.21700
C255        C  0.45760680  0.51519243  0.25373401    -0.21700
C256        C  0.45601558  0.47616867  0.25309590    -0.21700
C257        C  0.26406799  0.46986803  0.31238206    -0.17000
C258        C  0.40463584  0.54184235  0.26248039    -0.17000
C259        C  0.40231170  0.39764251  0.26538004    -0.17000
C260        C  0.25871365  0.32721308  0.31252604    -0.17000
H261        H  0.27922063  0.05165957  0.28906943     0.15900
H262        H  0.35121894  0.09116108  0.26493131     0.15900
H263        H  0.30069874  0.27169056  0.30682553     0.15900
H264        H  0.37731877  0.31195658  0.28627286     0.15900
H265        H  0.24069662  0.42640136  0.26526164     0.14200
H266        H  0.23529573  0.34740922  0.26575382     0.14200
H267        H  0.48093155  0.04154993  0.24269168     0.14200
H268        H  0.48102858  0.47331315  0.24285597     0.14200
H269        H  0.34121798  0.47244822  0.29566213     0.27400
H270        H  0.32649762  0.40034062  0.28558769     0.27400
N271        N  0.01990586  0.36808744  0.29124174    -0.35300
N272        N  0.11307420  0.40238337  0.30857385    -0.55900
N273        N  0.15222857  0.49753100  0.28700862    -0.35300
N274        N  0.04079995  0.46445599  0.25986062    -0.55900
C275        C  0.01622176  0.32946299  0.30016098     0.28300
C276        C  0.98139615  0.35822778  0.27891661     0.28300
C277        C  0.17246773  0.49952904  0.30906932     0.28300
C278        C  0.14094572  0.53024234  0.28675107     0.28300
C279        C  0.09404817  0.35851431  0.31577888     0.36900
C280        C  0.15690199  0.42279211  0.31576357     0.36900
C281        C  0.00415138  0.43551206  0.27332805     0.36900
C282        C  0.06498414  0.50141286  0.27398946     0.36900
C283        C  0.97536104  0.29528301  0.29296140    -0.20600
C284        C  0.45338242  0.31251348  0.28032082    -0.20600
C285        C  0.16448752  0.02966987  0.32404529    -0.20600
C286        C  0.14698076  0.04982093  0.30942514    -0.20600
C287        C  0.12647932  0.35243498  0.32657025    -0.21700
C288        C  0.16385202  0.39124690  0.32713722    -0.21700
C289        C  0.00632892  0.45267750  0.29687561    -0.21700
C290        C  0.04451039  0.49403625  0.29730666    -0.21700
C291        C  0.04746215  0.32421892  0.31553428    -0.17000
C292        C  0.97344392  0.39068825  0.26639351    -0.17000
C293        C  0.11114949  0.53290069  0.26944675    -0.17000
C294        C  0.18856237  0.47007416  0.31674842    -0.17000
H295        H  0.46204041  0.26095332  0.29600196     0.15900
H296        H  0.42114136  0.29170167  0.27240230     0.15900
H297        H  0.16989963  0.03559886  0.34375729     0.15900
H298        H  0.13588660  0.07218497  0.31605542     0.15900
H299        H  0.12510808  0.32482608  0.33601231     0.14200
H300        H  0.19064015  0.39397700  0.33799151     0.14200
H301        H  0.98362670  0.43621955  0.31233282     0.14200
H302        H  0.05550380  0.01914100  0.31075972     0.14200
H303        H  0.04685047  0.40000659  0.29377381     0.27400
H304        H  0.14580268  0.47434389  0.27290820     0.27400
C305        C  0.34884322  0.43980667  0.66760483    -0.01200
C306        C  0.06670557  0.14508395  0.66744797    -0.01200
C307        C  0.06013072  0.43513230  0.66656613    -0.01200
O308        O  0.05117306  0.99281083  0.83687866    -0.80500
C309        C  0.41353773  0.46467636  0.76967277     0.98800
O310        O  0.41660075  0.43573144  0.78249647    -0.69600
O311        O  0.48986477  0.43383209  0.77481145    -0.73200
Al312      Al  0.46227289  0.43819523  0.80381112     1.49000
C313        C  0.03144020  0.45059437  0.77156293     0.94100
O314        O  0.06134533  0.04999812  0.77514762    -0.79400
O315        O  0.49777273  0.05472083  0.83530024    -0.73000
Al316      Al  0.05446030  0.02013042  0.80569545     1.90100
O317        O  0.01518094  0.07469405  0.78355641    -0.72100
O318        O  0.42093804  0.98980528  0.82606296    -0.71900
O319        O  0.43740831  0.00294604  0.77521847    -0.77600
O320        O  0.43326322  0.43798971  0.83263793    -0.75800
O321        O  0.49537959  0.99468630  0.80447564    -1.11900
O322        O  0.99990549  0.42799393  0.82547993    -0.71100
C323        C  0.02710388  0.45388572  0.84157645     0.99600
C324        C  0.04533700  0.07472608  0.76980876     0.96000
Al325      Al  0.46992675  0.02826215  0.80490844     1.55600
O326        O  0.05882946  0.97525663  0.78707337    -0.75700
C327        C  0.41676066  0.46148690  0.83897755     1.00200
C328        C  0.03827173  0.07125569  0.84023876     0.95100
O329        O  0.06458576  0.07058756  0.82422177    -0.81100
C330        C  0.26851329  0.05778907  0.58756364    -0.01200
C331        C  0.46062054  0.24208870  0.58803865    -0.01200
C332        C  0.25762422  0.24401092  0.58622983    -0.01200
O333        O  0.38672025  0.17681418  0.41737525    -0.80500
C334        C  0.28234543  0.21266630  0.48141809     0.98800
O335        O  0.31280980  0.24220668  0.46785784    -0.69600
O336        O  0.38256292  0.23745497  0.47672322    -0.73200
Al337      Al  0.35553199  0.23711230  0.44694468     1.49000
C338        C  0.40142834  0.21629888  0.48334311     0.94100
O339        O  0.32861251  0.11849355  0.47463558    -0.79400
O340        O  0.26620121  0.11843842  0.41511474    -0.73000
Al341      Al  0.35636397  0.14848652  0.44601577     1.90100
O342        O  0.25970476  0.10063886  0.46808972    -0.72100
O343        O  0.26193212  0.18873902  0.42347348    -0.71900
O344        O  0.26129409  0.17314306  0.47421533    -0.77600
O345        O  0.33084931  0.24201829  0.41734217    -0.75800
O346        O  0.32608012  0.17768662  0.44598139    -1.11900
O347        O  0.40461415  0.24527951  0.42610913    -0.71100
C348        C  0.40654151  0.21731245  0.41179150     0.99600
C349        C  0.28958007  0.10302821  0.48261036     0.96000
Al350      Al  0.26663488  0.14735453  0.44515454     1.55600
O351        O  0.40278860  0.18849986  0.46857831    -0.75700
C352        C  0.29096966  0.22109032  0.41063663     1.00200
C353        C  0.28963077  0.10167623  0.40874651     0.95100
O354        O  0.31736528  0.10179004  0.42392910    -0.81100
N355        N  0.46561224  0.33926525  0.62984398    -0.35300
N356        N  0.43625144  0.40259017  0.64672604    -0.55900
N357        N  0.33597333  0.33821101  0.63207768    -0.35300
N358        N  0.37898066  0.28288822  0.61073178    -0.55900
C359        C  0.50400807  0.37836946  0.63373823     0.28300
C360        C  0.47610011  0.31258981  0.61604134     0.28300
C361        C  0.34838906  0.38258505  0.63266029     0.28300
C362        C  0.32082229  0.32199901  0.60873178     0.28300
C363        C  0.47279156  0.41263323  0.66103000     0.36900
C364        C  0.41334044  0.42006000  0.65879575     0.36900
C365        C  0.39763077  0.25655466  0.60606069     0.36900
C366        C  0.33594145  0.26016414  0.60243692     0.36900
C367        C  0.03788546  0.37740971  0.62126969    -0.20600
C368        C  0.52217611  0.33458281  0.61349125    -0.20600
C369        C  0.34758592  0.39615023  0.60864085    -0.20600
C370        C  0.33130315  0.35879540  0.59363886    -0.20600
C371        C  0.46874889  0.43203137  0.68255965    -0.21700
C372        C  0.43677503  0.44189839  0.67937715    -0.21700
C373        C  0.36547191  0.21759772  0.59547122    -0.21700
C374        C  0.32939907  0.22100676  0.59208661    -0.21700
C375        C  0.51099245  0.40849567  0.65343515    -0.17000
C376        C  0.44483757  0.27086065  0.60472539    -0.17000
C377        C  0.30475756  0.27642197  0.60049406    -0.17000
C378        C  0.36966669  0.41258396  0.65307087    -0.17000
H379        H  0.07069777  0.40381293  0.61873456     0.15900
H380        H  0.54415144  0.32312186  0.60707322     0.15900
H381        H  0.36024061  0.42997445  0.60221777     0.15900
H382        H  0.32796291  0.35980018  0.57373525     0.15900
H383        H  0.48613495  0.44179566  0.69973761     0.14200
H384        H  0.43184596  0.46060488  0.69308804     0.14200
H385        H  0.36745801  0.19059415  0.58708494     0.14200
H386        H  0.30427214  0.19768557  0.58017204     0.14200
H387        H  0.43538592  0.32950883  0.63893681     0.27400
H388        H  0.33647209  0.31950929  0.64720995     0.27400
N389        N  0.15388025  0.14954269  0.62364090    -0.35300
N390        N  0.24137375  0.13823153  0.59771057    -0.55900
N391        N  0.16305116  0.03248549  0.62851442    -0.35300
N392        N  0.09190730  0.05402644  0.63896126    -0.55900
C393        C  0.18400896  0.19028309  0.61401329     0.28300
C394        C  0.11556926  0.14953697  0.62899598     0.28300
C395        C  0.19816567  0.02981979  0.61852706     0.28300
C396        C  0.13055628  0.99116548  0.63613349     0.28300
C397        C  0.24201575  0.17113346  0.61206372     0.36900
C398        C  0.24566128  0.10940188  0.61300799     0.36900
C399        C  0.06934406  0.07456069  0.64811783     0.36900
C400        C  0.07733448  0.01534261  0.65248094     0.36900
C401        C  0.16376132  0.21630115  0.61408405    -0.20600
C402        C  0.11988750  0.18914929  0.62061248    -0.20600
C403        C  0.18881180  0.98664557  0.62027884    -0.20600
C404        C  0.14663942  0.96228309  0.62991511    -0.20600
C405        C  0.24448858  0.16169410  0.63688270    -0.21700
C406        C  0.24564924  0.12254994  0.63749305    -0.21700
C407        C  0.03819500  0.04642199  0.66481815    -0.21700
C408        C  0.04726624  0.01394220  0.66946048    -0.21700
C409        C  0.22748037  0.20134600  0.60414739    -0.17000
C410        C  0.08317186  0.12147744  0.64717374    -0.17000
C411        C  0.09092697  0.98168582  0.65114649    -0.17000
C412        C  0.23607032  0.06547782  0.60606377    -0.17000
H413        H  0.17801941  0.25143700  0.61060485     0.15900
H414        H  0.09507117  0.19923666  0.62184442     0.15900
H415        H  0.20936053  0.97306742  0.61499062     0.15900
H416        H  0.13281140  0.42814390  0.63331510     0.15900
H417        H  0.24169002  0.17919444  0.65288770     0.14200
H418        H  0.24389355  0.10412313  0.65416131     0.14200
H419        H  0.01942852  0.05317174  0.67770160     0.14200
H420        H  0.04141098  0.00056482  0.68759967     0.14200
H421        H  0.15998559  0.12399316  0.62783360     0.27400
H422        H  0.16223031  0.06168354  0.63028085     0.27400
N423        N  0.44156795  0.06616949  0.64919728    -0.35300
N424        N  0.49107828  0.16523756  0.62479424    -0.55900
N425        N  0.38741870  0.12634860  0.60184874    -0.35300
N426        N  0.35178599  0.03561499  0.62898582    -0.55900
C427        C  0.47656379  0.09411707  0.66442611     0.28300
C428        C  0.41407302  0.02722731  0.66239132     0.28300
C429        C  0.41014630  0.16682123  0.61225744     0.28300
C430        C  0.34490541  0.10684991  0.61076606     0.28300
C431        C  0.51037912  0.16935253  0.64727425     0.36900
C432        C  0.48507445  0.20106427  0.62160122     0.36900
C433        C  0.34762186  0.99544457  0.63499533     0.36900
C434        C  0.31701407  0.02827503  0.61388592     0.36900
C435        C  0.46701917  0.07482441  0.68751703    -0.20600
C436        C  0.43325802  0.03313063  0.68546612    -0.20600
C437        C  0.38550329  0.16916508  0.63213342    -0.20600
C438        C  0.34395398  0.13109785  0.63101776    -0.20600
C439        C  0.01004123  0.20429362  0.65983407    -0.21700
C440        C  0.49624311  0.22545993  0.64332086    -0.22900
C441        C  0.31072715  0.96256170  0.62280360    -0.21700
C442        C  0.29104418  0.98259514  0.61036113    -0.21700
C443        C  0.51721475  0.13588806  0.65862748    -0.17000
C444        C  0.37150208  0.98833860  0.65473862    -0.17000
C445        C  0.31051019  0.06367699  0.60401123    -0.17000
C446        C  0.45333030  0.20017484  0.60476042    -0.17000
H447        H  0.48213234  0.08588341  0.70502479     0.15900
H448        H  0.42711343  0.01281359  0.70113055     0.15900
H449        H  0.39596605  0.19595412  0.64544719     0.15900
H450        H  0.31760559  0.12109659  0.64459695     0.15900
H451        H  0.01707795  0.21294271  0.67922473     0.14200
H452        H  0.48941006  0.25184134  0.64791995     0.14200
H453        H  0.29661912  0.42806998  0.62308550     0.14200
H454        H  0.26108939  0.96358821  0.59994948     0.14200
H455        H  0.43842867  0.07214721  0.63046562     0.27400
H456        H  0.40141876  0.11242374  0.59015052     0.27400
C457        C  0.30333718  0.26626919  0.54475923     0.24900
C458        C  0.26954428  0.23209899  0.55995470    -0.23200
C459        C  0.24033697  0.19155937  0.54769121     0.19800
C460        C  0.24091201  0.18827956  0.52181856     0.24800
C461        C  0.27454363  0.22227535  0.50726873    -0.23200
C462        C  0.30549939  0.26144329  0.51906004     0.19700
F463        F  0.33803915  0.29574152  0.50572233    -0.13100
F464        F  0.33542549  0.30485089  0.55443482    -0.15500
F465        F  0.20671336  0.15231873  0.51085243    -0.15500
F466        F  0.20738137  0.15625834  0.55997689    -0.13100
C467        C  0.43748778  0.19537449  0.54685988     0.24900
C468        C  0.43501782  0.22765793  0.56226743    -0.23200
C469        C  0.42239709  0.25620902  0.54980255     0.19800
C470        C  0.41506626  0.25391057  0.52438325     0.24800
C471        C  0.41783386  0.22223288  0.50948689    -0.23200
C472        C  0.43019587  0.19359751  0.52092875     0.19700
F473        F  0.43684684  0.16476827  0.50693697    -0.13100
F474        F  0.45032819  0.16741792  0.55642382    -0.15500
F475        F  0.40730215  0.28520676  0.51419884    -0.15500
F476        F  0.42017214  0.28987994  0.56126096    -0.13100
C477        C  0.24467447  0.08796406  0.54974711     0.24900
C478        C  0.28043001  0.08954432  0.56400299    -0.23200
C479        C  0.31930574  0.10075061  0.54979363     0.19800
C480        C  0.31957227  0.10028774  0.52398429     0.24800
C481        C  0.28298345  0.09430887  0.51008066    -0.23200
C482        C  0.24548513  0.08865283  0.52335593     0.19700
F483        F  0.20823065  0.08032202  0.51090212    -0.13100
F484        F  0.20582904  0.07906558  0.56088201    -0.15500
F485        F  0.35559642  0.10202908  0.51264678    -0.15500
F486        F  0.35575434  0.10386919  0.55971976    -0.13100
C487        C  0.02311770  0.40098994  0.70966713     0.24900
C488        C  0.05459694  0.43944171  0.69548816    -0.23200
C489        C  0.08628722  0.47643335  0.70963068     0.19800
C490        C  0.08356398  0.47615843  0.73564391     0.24800
C491        C  0.04725583  0.44140763  0.74814464    -0.23200
C492        C  0.01924354  0.40260343  0.73532100     0.19700
F493        F  0.48481067  0.36668312  0.74704751    -0.13100
F494        F  0.49041808  0.36359025  0.69811300    -0.15500
F495        F  0.11537876  0.51095148  0.74862608    -0.15500
F496        F  0.11935207  0.51358153  0.69855458    -0.13100
C497        C  0.04977889  0.14683524  0.71513390     0.24900
C498        C  0.06538347  0.12981411  0.69559626    -0.23200
C499        C  0.08913257  0.10856387  0.70409367     0.19800
C500        C  0.08546679  0.09401759  0.72863191     0.24800
C501        C  0.05974206  0.10131591  0.74623604    -0.23200
C502        C  0.04526103  0.13125572  0.73981807     0.19700
F503        F  0.52504600  0.14422832  0.75714385    -0.13100
F504        F  0.03270960  0.17345663  0.70987570    -0.15500
F505        F  0.10787975  0.07294808  0.73503363    -0.15500
F506        F  0.11759456  0.10260002  0.68930499    -0.13100
C507        C  0.37378794  0.41179132  0.73438950     0.24900
C508        C  0.38365411  0.45062946  0.74761035    -0.23200
C509        C  0.36859527  0.47821547  0.73782788     0.19800
C510        C  0.35321728  0.47259367  0.71322131     0.24800
C511        C  0.35575768  0.44088858  0.69710154    -0.23200
C512        C  0.35793576  0.40585414  0.70989592     0.19700
F513        F  0.35002048  0.36808489  0.69795365    -0.13100
F514        F  0.38300107  0.38122342  0.74420718    -0.15500
F515        F  0.34530609  0.50447763  0.70406584    -0.15500
F516        F  0.37586375  0.01319296  0.75107213    -0.13100
C517        C  0.41914461  0.03090541  0.20618428     0.24900
C518        C  0.44696531  0.07271333  0.21779681    -0.23200
C519        C  0.47849643  0.10704551  0.20136795     0.19800
C520        C  0.48455948  0.09885920  0.17652978     0.24800
C521        C  0.45561694  0.05803090  0.16572939    -0.23200
C522        C  0.42136934  0.02527824  0.18064143     0.19700
F523        F  0.38838886  0.98750666  0.17037751    -0.13100
F524        F  0.38648789  0.99548120  0.21862156    -0.15500
F525        F  0.51752831  0.13204996  0.16275960    -0.15500
F526        F  0.50096735  0.15022860  0.20796679    -0.13100
C527        C  0.47965636  0.40840004  0.20940573     0.24900
C528        C  0.44205907  0.40305983  0.22304063    -0.23200
C529        C  0.40835076  0.40538177  0.20884559     0.19800
C530        C  0.41048021  0.40837884  0.18278350     0.24800
C531        C  0.44644435  0.41024420  0.16964643    -0.23200
C532        C  0.48000885  0.40850143  0.18337996     0.19700
F533        F  0.01290568  0.40484460  0.17154442    -0.13100
F534        F  0.51462553  0.40894199  0.22082252    -0.15500
F535        F  0.37603684  0.40741576  0.17037933    -0.15500
F536        F  0.37125028  0.40174842  0.21986175    -0.13100
C537        C  0.08950561  0.01414352  0.18649557     0.24900
C538        C  0.08829428  0.04586666  0.17095661    -0.23200
C539        C  0.09683218  0.08608861  0.18166373     0.19800
C540        C  0.10622132  0.09460828  0.20676185     0.24800
C541        C  0.10398529  0.06215320  0.22402692    -0.23200
C542        C  0.09694514  0.02172609  0.21235166     0.19700
F543        F  0.10326613  0.99140881  0.22479363    -0.13100
F544        F  0.08609483  0.97667915  0.17652908    -0.15500
F545        F  0.12529062  0.13804335  0.21212231    -0.15500
F546        F  0.10013506  0.11996695  0.16729412    -0.13100
C547        C  0.20217579  0.49265666  0.56265640     0.24900
C548        C  0.24692165  0.51380644  0.57162774    -0.23200
C549        C  0.27634166  0.50291000  0.55820865     0.19800
C550        C  0.26276245  0.47509272  0.53751610     0.24800
C551        C  0.21940243  0.45666544  0.52864499    -0.23200
C552        C  0.18893233  0.46459686  0.54196382     0.19700
F553        F  0.14628364  0.44755541  0.53407684    -0.13100
F554        F  0.17126523  0.50221445  0.57159151    -0.15500
F555        F  0.29328322  0.46777813  0.52559163    -0.15500
F556        F  0.32023165  0.02133476  0.56293131    -0.13100
C557        C  0.18470977  0.24930596  0.53775490     0.24900
C558        C  0.21096489  0.29428191  0.53138128    -0.23200
C559        C  0.23539097  0.32428476  0.55066276     0.19800
C560        C  0.24098035  0.30789728  0.57354437     0.24800
C561        C  0.22747505  0.26265631  0.57591958    -0.23200
C562        C  0.19001454  0.23436294  0.56069108     0.19700
F563        F  0.16240895  0.19060681  0.56570714    -0.13100
F564        F  0.15442709  0.21912184  0.52178598    -0.15500
F565        F  0.24708385  0.33238825  0.59437263    -0.15500
F566        F  0.25072525  0.36858996  0.54816739    -0.13100
C567        C  0.01965939  0.30916130  0.56144534     0.24900
C568        C  0.00851967  0.26933826  0.57535084    -0.23200
C569        C  0.03370354  0.24842300  0.56866441     0.19800
C570        C  0.06168173  0.26200338  0.54762753     0.24800
C571        C  0.06596005  0.29682239  0.53228399    -0.23200
C572        C  0.04733282  0.32210641  0.54052514     0.19700
F573        F  0.05381044  0.35859942  0.52759814    -0.13100
F574        F  0.00050729  0.33420611  0.56624124    -0.15500
F575        F  0.08221373  0.23856792  0.54149533    -0.15500
F576        F  0.02795285  0.21106400  0.57992656    -0.13100
C577        C  0.30770907  0.04822724  0.35099111     0.24900
C578        C  0.26840422  0.03744715  0.33739245    -0.23200
C579        C  0.25394652  0.06808139  0.34134559     0.19800
C580        C  0.25872756  0.08762442  0.36491283     0.24800
C581        C  0.28555699  0.08321962  0.38309797    -0.23200
C582        C  0.31393538  0.06761748  0.37467519     0.19700
F583        F  0.34717991  0.07044908  0.38917264    -0.13100
F584        F  0.33637347  0.03460188  0.34336549    -0.15500
F585        F  0.24059797  0.11386652  0.36892801    -0.15500
F586        F  0.24829134  0.08863573  0.32133971    -0.13100
C587        C  0.19022054  0.46195113  0.37218191     0.24900
C588        C  0.22595480  0.46441986  0.35734993    -0.23200
C589        C  0.25626102  0.45501231  0.36988461     0.19800
C590        C  0.25399602  0.44899175  0.39568147     0.24800
C591        C  0.21791537  0.44538425  0.40976238    -0.23200
C592        C  0.18619532  0.45213326  0.39767157     0.19700
F593        F  0.15043192  0.44851847  0.41038386    -0.13100
F594        F  0.15697778  0.46648716  0.36228243    -0.15500
F595        F  0.28832187  0.44798180  0.40703289    -0.15500
F596        F  0.29030404  0.45431409  0.35772094    -0.13100
C597        C  0.22403647  0.21909489  0.35525422     0.24900
C598        C  0.25056567  0.26226771  0.34396626    -0.23200
C599        C  0.29379048  0.28896105  0.35469372     0.19800
C600        C  0.30735905  0.27492417  0.37552423     0.24800
C601        C  0.27848653  0.23431695  0.38726788    -0.23200
C602        C  0.23771852  0.20597301  0.37624188     0.19700
F603        F  0.20901961  0.16579318  0.38663013    -0.13100
F604        F  0.18174639  0.19001124  0.34849156    -0.15500
F605        F  0.34790432  0.30331811  0.38530332    -0.15500
F606        F  0.32226568  0.33126882  0.34723938    -0.13100
C607        C  0.24444007  0.33702684  0.36815500     0.24900
C608        C  0.21184276  0.30003415  0.35405882    -0.23200
C609        C  0.17520548  0.26691144  0.36824345     0.19800
C610        C  0.17518242  0.26720864  0.39416826     0.24800
C611        C  0.20854216  0.30276310  0.40755005    -0.23200
C612        C  0.24312536  0.33750684  0.39425518     0.19700
F613        F  0.27761857  0.37081532  0.40660190    -0.13100
F614        F  0.28169745  0.37036906  0.35747302    -0.15500
F615        F  0.14363288  0.23037182  0.40632564    -0.15500
F616        F  0.14233342  0.22945490  0.35785557    -0.13100
C617        C  0.44293995  0.20144764  0.37674255     0.24900
C618        C  0.43130711  0.23054586  0.38798391    -0.23200
C619        C  0.44067818  0.26962282  0.37534978     0.19800
C620        C  0.46551201  0.28164971  0.35306037     0.24800
C621        C  0.48398853  0.25575654  0.34332171    -0.23200
C622        C  0.46816102  0.21325189  0.35512532     0.19700
F623        F  0.48250522  0.18474961  0.34861885    -0.13100
F624        F  0.43375620  0.16252881  0.38792632    -0.15500
F625        F  0.47599605  0.32187928  0.34351860    -0.15500
F626        F  0.42752599  0.29744833  0.38506521    -0.13100
C627        C  0.06820504  0.26292386  0.39790720     0.24900
C628        C  0.07146386  0.29966703  0.41073074    -0.23200
C629        C  0.06702346  0.33173898  0.39715578     0.19800
C630        C  0.06010809  0.32784773  0.37160399     0.24800
C631        C  0.05629212  0.29076195  0.35795307    -0.23200
C632        C  0.06259538  0.25931259  0.37189504     0.19700
F633        F  0.06094890  0.22339526  0.36088299    -0.13100
F634        F  0.06993764  0.23001388  0.41058205    -0.15500
F635        F  0.05503978  0.36027400  0.36068733    -0.15500
F636        F  0.06846298  0.36727354  0.40877129    -0.13100
C637        C  0.42732496  0.15040420  0.22625626     0.24900
C638        C  0.40706490  0.10481378  0.23356683    -0.23200
C639        C  0.36624936  0.07461688  0.22138529     0.19800
C640        C  0.35216481  0.08701738  0.20066391     0.24800
C641        C  0.37625065  0.13034790  0.19165832    -0.23200
C642        C  0.41228417  0.16259854  0.20520518     0.19700
F643        F  0.43426122  0.20560959  0.19743634    -0.13100
F644        F  0.46504895  0.18271656  0.23686485    -0.15500
F645        F  0.31677408  0.05488329  0.18803432    -0.15500
F646        F  0.34205766  0.03075979  0.22721911    -0.13100
C647        C  0.41452505  0.29171973  0.20351269     0.24900
C648        C  0.37262856  0.27940770  0.19360927    -0.23200
C649        C  0.34389097  0.28833593  0.20773948     0.19800
C650        C  0.35830608  0.31306592  0.22990453     0.24800
C651        C  0.40324143  0.33103462  0.23872043    -0.23200
C652        C  0.42856040  0.31461474  0.22589973     0.19700
F653        F  0.47149246  0.32828963  0.23161969    -0.13100
F654        F  0.44489089  0.28611417  0.19018124    -0.15500
F655        F  0.32918388  0.32398244  0.24004926    -0.15500
F656        F  0.30252642  0.27597963  0.19927259    -0.13100
C657        C  0.19787999  0.14505027  0.23261970     0.24900
C658        C  0.17697263  0.10034130  0.24189725    -0.23200
C659        C  0.19315238  0.07377331  0.23068803     0.19800
C660        C  0.21374763  0.08466414  0.20702871     0.24800
C661        C  0.22269736  0.12439064  0.19514166    -0.23200
C662        C  0.21848889  0.15595581  0.20934641     0.19700
F663        F  0.23035149  0.19677107  0.19993075    -0.13100
F664        F  0.19168660  0.17727472  0.24273385    -0.15500
F665        F  0.22365886  0.05566802  0.19561860    -0.15500
F666        F  0.18397027  0.03428041  0.24059200    -0.13100
C667        C  0.46836885  0.11023689  0.05024668     0.24900
C668        C  0.46276133  0.06801550  0.04757329    -0.23200
C669        C  0.45218813  0.04776352  0.02394636     0.19800
C670        C  0.43965437  0.06688733  0.00461960     0.24800
C671        C  0.43165936  0.10202658  0.01019806    -0.23200
C672        C  0.45364705  0.12753374  0.03188133     0.19700
F673        F  0.45088349  0.16353469  0.03884822    -0.13100
F674        F  0.48339737  0.13275874  0.07203742    -0.15500
F675        F  0.43600777  0.05159456  0.98100669    -0.15500
F676        F  0.45372454  0.00993840  0.01973037    -0.13100
C677        C  0.35212346  0.08495880  0.06611171     0.24900
C678        C  0.35696728  0.12614534  0.07249683    -0.23200
C679        C  0.35698274  0.15357922  0.05342364     0.19800
C680        C  0.36167673  0.14442735  0.02881879     0.24800
C681        C  0.36784726  0.10919434  0.02218077    -0.23200
C682        C  0.35564132  0.07569213  0.04104233     0.19700
F683        F  0.35385663  0.03675994  0.03627007    -0.13100
F684        F  0.34727845  0.05513959  0.08401280    -0.15500
F685        F  0.35819281  0.16897674  0.01143914    -0.15500
F686        F  0.35208913  0.18921381  0.05851097    -0.13100
C687        C  0.39553720  0.39030480  0.03813200     0.24900
C688        C  0.44008609  0.40704564  0.04547778    -0.23200
C689        C  0.47169767  0.41584433  0.02655144     0.19800
C690        C  0.45684928  0.39724329  0.00292984     0.24800
C691        C  0.41246554  0.36375758  0.00023971    -0.23200
C692        C  0.38253385  0.37222107  0.01444421     0.19700
F693        F  0.33905536  0.35481279  0.00839256    -0.13100
F694        F  0.36434336  0.38965135  0.05395333    -0.15500
F695        F  0.48118584  0.41953976  0.98249043    -0.15500
F696        F  0.51548158  0.44529797  0.03014120    -0.13100
C697        C  0.33505636  0.27443187  0.05719603     0.24900
C698        C  0.36837561  0.27777048  0.07316661    -0.23200
C699        C  0.41109233  0.29336860  0.06333509     0.19800
C700        C  0.41963349  0.30400985  0.03810818     0.24800
C701        C  0.38500124  0.29422647  0.02071746    -0.23200
C702        C  0.34182159  0.27892570  0.03142364     0.19700
F703        F  0.30672338  0.27347452  0.01780706    -0.13100
F704        F  0.29630322  0.26919066  0.06668406    -0.15500
F705        F  0.46289582  0.32857274  0.03160483    -0.15500
F706        F  0.44549835  0.30050520  0.07827780    -0.13100
C707        C  0.13732017  0.03475430  0.01102778     0.24900
C708        C  0.15525543  0.07913311  0.00166113    -0.23200
C709        C  0.13904700  0.10504479  0.01423503     0.19800
C710        C  0.11517242  0.09103118  0.03662806     0.24800
C711        C  0.10586941  0.05081557  0.04766409    -0.23200
C712        C  0.11476443  0.02174786  0.03391395     0.19700
F713        F  0.10469516  0.98141704  0.04342138    -0.13100
F714        F  0.14719411  0.00518220  0.00081168    -0.15500
F715        F  0.10335529  0.11855109  0.04817396    -0.15500
F716        F  0.15188923  0.14748474  0.00763301    -0.13100
C717        C  0.23601752  0.08939002  0.05644897     0.24900
C718        C  0.23638502  0.12525190  0.06912153    -0.23200
C719        C  0.23458322  0.15790990  0.05480159     0.19800
C720        C  0.23326331  0.15560161  0.02871419     0.24800
C721        C  0.22831011  0.11731463  0.01562168    -0.23200
C722        C  0.23171373  0.08522256  0.03050661     0.19700
F723        F  0.22649004  0.04698625  0.02061023    -0.13100
F724        F  0.23790042  0.05661227  0.06927541    -0.15500
F725        F  0.23257952  0.18966727  0.01676959    -0.15500
F726        F  0.23255678  0.19179028  0.06609020    -0.13100
C727        C  0.25677322  0.42577625  0.70368960     0.24900
C728        C  0.25123838  0.38704642  0.71538664    -0.23200
C729        C  0.25504328  0.35601654  0.70004492     0.19800
C730        C  0.27399637  0.36856471  0.67610769     0.24800
C731        C  0.29596207  0.41405924  0.66879824    -0.23200
C732        C  0.27536068  0.43720377  0.67948711     0.19700
F733        F  0.28314877  0.47687529  0.67029612    -0.13100
F734        F  0.25108080  0.45605507  0.71675010    -0.15500
F735        F  0.27479369  0.33708460  0.66170873    -0.15500
F736        F  0.24343354  0.31468270  0.70849253    -0.13100
C737        C  0.15643304  0.22125560  0.70595820     0.24900
C738        C  0.13536615  0.24511550  0.71317504    -0.23200
C739        C  0.11526861  0.25696055  0.69432491     0.19800
C740        C  0.10180065  0.23212385  0.67248311     0.24800
C741        C  0.10682658  0.19460721  0.67067532    -0.23200
C742        C  0.14644833  0.20093747  0.68247202     0.19700
F743        F  0.16752740  0.17893592  0.67487364    -0.13100
F744        F  0.18297364  0.21466353  0.72178987    -0.15500
F745        F  0.09619261  0.25117452  0.65180035    -0.15500
F746        F  0.11144231  0.29368648  0.69652735    -0.13100
C747        C  0.07083138  0.34612783  0.69856409     0.24900
C748        C  0.10777109  0.37501305  0.71264427    -0.23200
C749        C  0.13826327  0.41649437  0.70249708     0.19800
C750        C  0.12843701  0.43212108  0.68138928     0.24800
C751        C  0.08516479  0.40795204  0.67031984    -0.23200
C752        C  0.06101646  0.36139397  0.67667180     0.19700
F753        F  0.02194935  0.33222229  0.66613671    -0.13100
F754        F  0.04207866  0.30424256  0.70688735    -0.15500
F755        F  0.15654215  0.47619405  0.67759069    -0.15500
F756        F  0.17467630  0.44629289  0.71527327    -0.13100
C757        C  0.11461907  0.14500952  0.88983793     0.24900
C758        C  0.08279732  0.14687764  0.90604666    -0.23200
C759        C  0.04154413  0.10711634  0.90697506     0.19800
C760        C  0.02692702  0.08027234  0.88568450     0.24800
C761        C  0.05510153  0.09167094  0.86461349    -0.23200
C762        C  0.10067838  0.12011719  0.86819077     0.19700
F763        F  0.13157411  0.12448494  0.85092914    -0.13100
F764        F  0.15871048  0.16718300  0.89455144    -0.15500
F765        F  0.98714445  0.04214226  0.88623134    -0.15500
F766        F  0.01950527  0.09035823  0.92882565    -0.13100
C767        C  0.13963363  0.25525625  0.85462858     0.24900
C768        C  0.10883649  0.23176678  0.83598676    -0.23200
C769        C  0.06546490  0.19960122  0.84364720     0.19800
C770        C  0.05631730  0.18926645  0.86937552     0.24800
C771        C  0.08989974  0.21318764  0.88768483    -0.23200
C772        C  0.12515984  0.25168889  0.87899814     0.19700
F773        F  0.14187196  0.28721579  0.89359724    -0.13100
F774        F  0.18335506  0.28331350  0.84936698    -0.15500
F775        F  0.01511304  0.15662920  0.87593984    -0.15500
F776        F  0.03316273  0.17694398  0.82661471    -0.13100
C777        C  0.36873754  0.47239058  0.90045302     0.24900
C778        C  0.33925614  0.42671939  0.90612863    -0.23200
C779        C  0.34843082  0.39596731  0.89334597     0.19800
C780        C  0.37405504  0.40792942  0.87200944     0.24800
C781        C  0.39276350  0.45112675  0.86273305    -0.23200
C782        C  0.39204081  0.48402610  0.87763864     0.19700
F783        F  0.41161397  0.02400299  0.86963322    -0.13100
F784        F  0.36885271  0.50558014  0.91375443    -0.15500
F785        F  0.37790874  0.37575138  0.85961847    -0.15500
F786        F  0.33263877  0.35337919  0.90072571    -0.13100
C787        C  0.20919778  0.36919778  0.86063990     0.24900
C788        C  0.24023866  0.39186385  0.84137155    -0.23200
C789        C  0.27727097  0.43240516  0.84770795     0.19800
C790        C  0.28663785  0.44257336  0.87295407     0.24800
C791        C  0.26651317  0.40808359  0.89136911    -0.23200
C792        C  0.22287562  0.37635247  0.88561103     0.19700
F793        F  0.19298059  0.35788505  0.90430498    -0.13100
F794        F  0.16547421  0.34398028  0.85528522    -0.15500
F795        F  0.30979158  0.48613009  0.87939704    -0.15500
F796        F  0.30087842  0.46353908  0.82996651    -0.13100
C797        C  0.01928948  0.37425291  0.89227904     0.24900
C798        C  0.05568670  0.40387218  0.90733209    -0.23200
C799        C  0.06093347  0.44653471  0.90808590     0.19800
C800        C  0.05231983  0.46412231  0.88651117     0.24800
C801        C  0.03139683  0.43603668  0.86594015    -0.23200
C802        C  0.01040839  0.38993697  0.87031679     0.19700
F803        F  0.98217995  0.36008987  0.85349693    -0.13100
F804        F  0.99434495  0.33039135  0.89771656    -0.15500
F805        F  0.06244648  0.50733631  0.88621902    -0.15500
F806        F  0.06565020  0.46697120  0.93034723    -0.13100
C807        C  0.13424054  0.41505605  0.87233256     0.24900
C808        C  0.10485803  0.38000973  0.88868870    -0.23200
C809        C  0.07596648  0.33842522  0.87693431     0.19800
C810        C  0.07433549  0.33338267  0.85123294     0.24800
C811        C  0.10288493  0.36834678  0.83544017    -0.23200
C812        C  0.13337093  0.40924787  0.84633294     0.19700
F813        F  0.16307625  0.44379201  0.83194348    -0.13100
F814        F  0.16345255  0.45596961  0.88111904    -0.15500
F815        F  0.04324173  0.29343332  0.84183588    -0.15500
F816        F  0.04370957  0.30294654  0.88926389    -0.13100
C817        C  0.09212736  0.89026404  0.91576510    -0.01200
C818        C  0.29035569  0.90773148  0.91711434    -0.01200
C819        C  0.09097541  0.69406980  0.91474258    -0.01200
O820        O  0.15389145  0.88579649  0.74574736    -0.80500
C821        C  0.11995635  0.74896306  0.81058212     0.98800
O822        O  0.09160582  0.74630123  0.79498862    -0.69600
O823        O  0.08661212  0.81682092  0.80322442    -0.73200
Al824      Al  0.09609004  0.79389352  0.77383996     1.49000
C825        C  0.10509952  0.85692042  0.80991650     0.94100
O826        O  0.20535630  0.89717838  0.80654756    -0.79400
O827        O  0.22422964  0.83758686  0.75033203    -0.73000
Al828      Al  0.17823157  0.88869970  0.77585888     1.90100
O829        O  0.22979022  0.84987608  0.80354441    -0.72100
O830        O  0.15914165  0.76073522  0.75477832    -0.71900
O831        O  0.16076124  0.77270892  0.80583191    -0.77600
O832        O  0.10312199  0.76995721  0.74441131    -0.75800
O833        O  0.15526308  0.82977943  0.77635967    -1.11900
O834        O  0.08586620  0.83221134  0.75191644    -0.71100
C835        C  0.11494935  0.86290267  0.73829313     0.99600
C836        C  0.22531623  0.87899228  0.81568901     0.96000
Al837      Al  0.19112830  0.80704971  0.77856517     1.55600
O838        O  0.13025049  0.88747597  0.79483304    -0.75700
C839        C  0.13197952  0.75950970  0.73871777     1.00200
C840        C  0.23509782  0.87546517  0.74218928     0.95100
O841        O  0.23037412  0.90228448  0.75613942    -0.81100
N842        N  0.31890623  0.51125714  0.95289858    -0.35300
N843        N  0.20874724  0.93144150  0.92450762    -0.55900
N844        N  0.17478023  0.49628958  0.95593872    -0.35300
N845        N  0.28402726  0.57391287  0.98506113    -0.55900
C846        C  0.31214387  0.96937101  0.95158740     0.28300
C847        C  0.34308533  0.53070897  0.97362524     0.28300
C848        C  0.15147742  0.97430279  0.93540546     0.28300
C849        C  0.18286076  0.53891089  0.95672350     0.28300
C850        C  0.23610245  0.92606991  0.94031233     0.36900
C851        C  0.16886219  0.91569313  0.93650149     0.36900
C852        C  0.32424252  0.58862584  0.97356803     0.36900
C853        C  0.25819022  0.58143848  0.96914558     0.36900
C854        C  0.32712732  0.96000676  0.97316410    -0.20600
C855        C  0.34775285  0.49834135  0.98635588    -0.20600
C856        C  0.15154938  0.00733092  0.92048938    -0.20600
C857        C  0.16859156  0.54775319  0.93462837    -0.20600
C858        C  0.21520518  0.91061961  0.96311611    -0.21700
C859        C  0.17286749  0.90421055  0.96072609    -0.21700
C860        C  0.32336501  0.60429005  0.94994571    -0.21700
C861        C  0.28135437  0.59903626  0.94697191    -0.21700
C862        C  0.28095848  0.93805252  0.93498432    -0.17000
C863        C  0.35502581  0.57501006  0.98108023    -0.17000
C864        C  0.21335935  0.57111051  0.97387860    -0.17000
C865        C  0.13711079  0.92797728  0.92943749    -0.17000
H866        H  0.31938454  0.92769905  0.98012021     0.15900
H867        H  0.36127903  0.49965602  0.00436380     0.15900
H868        H  0.14202428  0.00462642  0.90118927     0.15900
H869        H  0.17458326  0.57988683  0.92820450     0.15900
H870        H  0.22941390  0.90554542  0.97982534     0.14200
H871        H  0.14955448  0.89663371  0.97592429     0.14200
H872        H  0.34917564  0.61520092  0.93576006     0.14200
H873        H  0.26917865  0.60740163  0.93050724     0.14200
H874        H  0.30749296  0.52545338  0.93984318     0.27400
H875        H  0.18511088  0.48249143  0.96979203     0.27400
C876        C  0.20179836  0.60297788  0.99043764    -0.01200
C877        C  0.39686279  0.81172517  0.99381241    -0.01200
C878        C  0.39359534  0.60830356  0.99880941    -0.01200
O879        O  0.38408289  0.66631753  0.15408710    -0.80500
C880        C  0.24283037  0.62817312  0.09715814     0.98800
O881        O  0.26004606  0.60707214  0.10619196    -0.69600
O882        O  0.33289937  0.60972626  0.11645642    -0.73200
Al883      Al  0.28872996  0.61450841  0.13607639     1.49000
C884        C  0.35485641  0.63697382  0.09921079     0.94100
O885        O  0.37998737  0.75297982  0.11256727    -0.79400
O886        O  0.32253486  0.74860035  0.15659511    -0.73000
Al887      Al  0.37490470  0.70570558  0.13318420     1.90100
O888        O  0.31099402  0.73239873  0.10442023    -0.72100
O889        O  0.25326830  0.67282066  0.16256044    -0.71900
O890        O  0.24032235  0.65791885  0.11000835    -0.77600
O891        O  0.23873658  0.60522073  0.15581150    -0.75800
O892        O  0.31560756  0.67398253  0.13422488    -1.11900
O893        O  0.31589611  0.61825164  0.16608608    -0.71100
C894        C  0.35704932  0.63906546  0.16995919     0.99600
C895        C  0.35134478  0.75311523  0.09833693     0.96000
Al896      Al  0.28369461  0.70089502  0.13347580     1.55600
O897        O  0.37561303  0.67812292  0.10347541    -0.75700
C898        C  0.23734822  0.63349297  0.16990302     1.00200
C899        C  0.35565809  0.75336864  0.16928703     0.95100
O900        O  0.37748361  0.73521145  0.16234501    -0.81100
N901        N  0.49376021  0.82239853  0.95197881    -0.35300
N902        N  0.41722499  0.72114961  0.98061495    -0.55900
N903        N  0.49459439  0.68825283  0.95895123    -0.35300
N904        N  0.07486980  0.78197290  0.92430694    -0.55900
C905        C  0.47697581  0.83217005  0.97244556     0.28300
C906        C  0.03846098  0.85017517  0.95139921     0.28300
C907        C  0.45222101  0.65450676  0.96340861     0.28300
C908        C  0.01335628  0.67734650  0.93988312     0.28300
C909        C  0.43803028  0.76222019  0.99138473     0.36900
C910        C  0.43322705  0.69653881  0.99161399     0.36900
C911        C  0.08281276  0.81708806  0.93911341     0.36900
C912        C  0.07933735  0.75150731  0.93806653     0.36900
C913        C  0.51397280  0.86307453  0.98608219    -0.20600
C914        C  0.05175382  0.87680026  0.97200614    -0.20600
C915        C  0.44228927  0.62218535  0.94568354    -0.20600
C916        C  0.97934557  0.63762229  0.93028583    -0.20600
C917        C  0.47274365  0.76511662  0.00578609    -0.21700
C918        C  0.46950182  0.72421596  0.00597148    -0.21700
C919        C  0.09061845  0.80708322  0.96303312    -0.21700
C920        C  0.09050687  0.76720591  0.96209773    -0.21700
C921        C  0.43495383  0.80037622  0.98308813    -0.17000
C922        C  0.06785195  0.84841161  0.93378003    -0.17000
C923        C  0.05944462  0.70540600  0.93147261    -0.17000
C924        C  0.42355935  0.65372388  0.98329836    -0.17000
H925        H  0.51541449  0.87246447  0.00529004     0.15900
H926        H  0.08541889  0.90010387  0.97759615     0.15900
H927        H  0.41073761  0.59228429  0.94272682     0.15900
H928        H  0.97830598  0.62173966  0.91302978     0.15900
H929        H  0.50006996  0.79435008  0.01400035     0.14200
H930        H  0.49456254  0.71752177  0.01330911     0.14200
H931        H  0.09252660  0.82475070  0.97999478     0.14200
H932        H  0.09225328  0.74889821  0.97797460     0.14200
H933        H  0.47569392  0.79564049  0.94000001     0.27400
H934        H  0.51050997  0.71715097  0.96935434     0.27400
N935        N  0.30240007  0.81792584  0.95596865    -0.35300
N936        N  0.27959648  0.72525765  0.96523903    -0.55900
N937        N  0.18671979  0.69210917  0.95165256    -0.35300
N938        N  0.20326307  0.79059376  0.93729846    -0.55900
C939        C  0.34355050  0.82513540  0.96280338     0.28300
C940        C  0.30656926  0.85734028  0.94798633     0.28300
C941        C  0.18059036  0.65364155  0.96221173     0.28300
C942        C  0.14604403  0.68730669  0.94640878     0.28300
C943        C  0.32309859  0.74710033  0.97302775     0.36900
C944        C  0.26143338  0.68124077  0.97195818     0.36900
C945        C  0.23894509  0.82055432  0.92332911     0.36900
C946        C  0.17906072  0.75478452  0.92220831     0.36900
C947        C  0.37403125  0.86928961  0.95793927    -0.20600
C948        C  0.35087544  0.89002550  0.95148871    -0.20600
C949        C  0.13502485  0.62327092  0.96174436    -0.20600
C950        C  0.11374150  0.64601649  0.95489350    -0.20600
C951        C  0.33125009  0.71701150  0.98385910    -0.21700
C952        C  0.29479753  0.67677397  0.98256547    -0.21700
C953        C  0.23922998  0.80200521  0.90057682    -0.21700
C954        C  0.20317150  0.76000911  0.90043214    -0.21700
C955        C  0.35391004  0.79420093  0.97512620    -0.17000
C956        C  0.27511806  0.86162338  0.93190288    -0.17000
C957        C  0.13871738  0.71509214  0.92936154    -0.17000
C958        C  0.21454407  0.64689788  0.97374715    -0.17000
H959        H  0.40991745  0.88567392  0.95844505     0.15900
H960        H  0.36730624  0.92523543  0.94771849     0.15900
H961        H  0.11757999  0.58825313  0.96618710     0.15900
H962        H  0.07822386  0.63247228  0.95481789     0.15900
H963        H  0.35684554  0.72441345  0.99639277     0.14200
H964        H  0.29287198  0.64948776  0.99236883     0.14200
H965        H  0.26239934  0.81692921  0.88521486     0.14200
H966        H  0.19489469  0.73757721  0.88495181     0.14200
H967        H  0.27239055  0.78813731  0.95686008     0.27400
H968        H  0.21687770  0.71937182  0.94634996     0.27400
C969        C  0.03324911  0.77975050  0.33109251    -0.01200
C970        C  0.22769179  0.78536124  0.33086052    -0.01200
C971        C  0.23568794  0.98677724  0.33046207    -0.01200
O972        O  0.10561894  0.78658531  0.50149779    -0.80500
C973        C  0.20725816  0.92538597  0.43518552     0.98800
O974        O  0.17770598  0.92539146  0.44938827    -0.69600
O975        O  0.10636138  0.85160622  0.44224539    -0.73200
Al976      Al  0.13558221  0.87840952  0.47143961     1.49000
C977        C  0.08649910  0.81139155  0.43612138     0.94100
O978        O  0.15865704  0.78598254  0.44207954    -0.79400
O979        O  0.22453582  0.85059217  0.50174285    -0.73000
Al980      Al  0.13360130  0.78868222  0.47166393     1.90100
O981        O  0.22843609  0.83364400  0.44990802    -0.72100
O982        O  0.23107997  0.92559029  0.49183669    -0.71900
O983        O  0.22731252  0.90534515  0.44158610    -0.77600
O984        O  0.16262207  0.90832549  0.50075851    -0.75800
O985        O  0.16423013  0.84806228  0.47145763    -1.11900
O986        O  0.08788209  0.83751688  0.49320202    -0.71100
C987        C  0.08629663  0.80759205  0.50749852     0.99600
C988        C  0.19855533  0.80649683  0.43520646     0.96000
Al989      Al  0.22360388  0.87665424  0.47132202     1.55600
O990        O  0.08515949  0.78234929  0.45097181    -0.75700
C991        C  0.20325771  0.92855871  0.50603900     1.00200
C992        C  0.20198441  0.81018269  0.50743189     0.95100
O993        O  0.17552974  0.78246803  0.49174711    -0.81100
C994        C  0.12575518  0.57567494  0.25198407    -0.01200
C995        C  0.43074357  0.88103578  0.24896514    -0.01200
C996        C  0.43466217  0.58432249  0.24432445    -0.01200
O997        O  0.51300647  0.56582841  0.07563328    -0.80500
C998        C  0.45838438  0.92507721  0.14240062     0.98800
O999        O  0.43101552  0.93006097  0.12926567    -0.69600
O1000       O  0.43988914  0.50714740  0.13407612    -0.73200
Al1001     Al  0.44223409  0.97747076  0.10622914     1.49000
C1002       C  0.46269188  0.54685769  0.14007787     0.94100
O1003       O  0.05676977  0.55928483  0.13698892    -0.79400
O1004       O  0.06069079  0.49535373  0.07889539    -0.73000
Al1005     Al  0.03396766  0.56063925  0.10656162     1.90100
O1006       O  0.06865206  0.50313334  0.13268597    -0.72100
O1007       O  0.48796573  0.92740468  0.08199956    -0.71900
O1008       O  0.49674279  0.93752534  0.13422263    -0.77600
O1009       O  0.43638967  0.94599736  0.07839214    -0.75800
O1010       O  0.49962000  0.50140815  0.10659934    -1.11900
O1011       O  0.44158368  0.51937443  0.08236168    -0.71100
C1012       C  0.47321361  0.54811010  0.06883109     0.99600
C1013       C  0.07025067  0.53468331  0.14578361     0.96000
Al1014     Al  0.02764218  0.96941997  0.10630036     1.55600
O1015       O  0.49367073  0.57363007  0.12571333    -0.75700
C1016       C  0.45633111  0.92715972  0.07015147     1.00200
C1017       C  0.08255300  0.53569193  0.07339305     0.95100
O1018       O  0.08319064  0.56405023  0.08828386    -0.81100
N1019       N  0.14114080  0.67793140  0.29356868    -0.35300
N1020       N  0.03923557  0.59870641  0.26190331    -0.55900
N1021       N  0.01878052  0.68045303  0.28835738    -0.35300
N1022       N  0.11888327  0.75771933  0.32141120    -0.55900
C1023       C  0.14554304  0.64320638  0.28472604     0.28300
C1024       C  0.18031880  0.71013933  0.30316211     0.28300
C1025       C  0.98080332  0.64815022  0.27767972     0.28300
C1026       C  0.00981158  0.70882295  0.30115950     0.28300
C1027       C  0.08366434  0.62160942  0.25719922     0.36900
C1028       C  0.02192148  0.62342382  0.25241966     0.36900
C1029       C  0.15405252  0.76398918  0.30682387     0.36900
C1030       C  0.08888936  0.76128909  0.30674100     0.36900
C1031       C  0.18746208  0.65126234  0.29154523    -0.20600
C1032       C  0.20963417  0.69348910  0.30203387    -0.20600
C1033       C  0.44622311  0.65351231  0.28590990    -0.20600
C1034       C  0.96368568  0.69092982  0.30025652    -0.20600
C1035       C  0.09509951  0.66334885  0.24769936    -0.21700
C1036       C  0.05662877  0.66401880  0.24410893    -0.21700
C1037       C  0.14491612  0.76906835  0.28233456    -0.21700
C1038       C  0.10444917  0.76806756  0.28229671    -0.21700
C1039       C  0.11554054  0.61078693  0.26666260    -0.17000
C1040       C  0.18652462  0.75173663  0.31381199    -0.17000
C1041       C  0.04370556  0.74795053  0.31394948    -0.17000
C1042       C  0.97921915  0.61773080  0.25909361    -0.17000
H1043       H  0.20255432  0.63116080  0.28753539     0.15900
H1044       H  0.24321116  0.70841808  0.30844245     0.15900
H1045       H  0.41208443  0.63429849  0.28161653     0.15900
H1046       H  0.44205768  0.69998706  0.30986676     0.15900
H1047       H  0.12828802  0.69127098  0.24453543     0.14200
H1048       H  0.05478470  0.69318401  0.23880861     0.14200
H1049       H  0.16430146  0.77066417  0.26603019     0.14200
H1050       H  0.08681807  0.76903679  0.26596825     0.14200
H1051       H  0.11193116  0.67952411  0.29349101     0.27400
H1052       H  0.04963771  0.68228850  0.28794195     0.27400
N1053       N  0.33518912  0.99835233  0.28989084    -0.35300
N1054       N  0.25459929  0.89595549  0.32180330    -0.55900
N1055       N  0.33056233  0.87320692  0.28927795    -0.35300
N1056       N  0.39352240  0.96565657  0.27186520    -0.55900
C1057       C  0.29937938  0.00206585  0.29740374     0.28300
C1058       C  0.36278462  0.03440936  0.27541343     0.28300
C1059       C  0.29952936  0.83461244  0.30089061     0.28300
C1060       C  0.36481474  0.86773487  0.28059373     0.28300
C1061       C  0.25023870  0.92539481  0.30688794     0.36900
C1062       C  0.24581941  0.85967635  0.30770196     0.36900
C1063       C  0.41843852  0.00954563  0.26487512     0.36900
C1064       C  0.41660325  0.94505200  0.26431468     0.36900
C1065       C  0.30393911  0.53997413  0.28792507    -0.20600
C1066       C  0.34329409  0.56078428  0.27490377    -0.20600
C1067       C  0.31465302  0.80457161  0.29925050    -0.20600
C1068       C  0.35540070  0.82550293  0.28742239    -0.20600
C1069       C  0.24118084  0.90869382  0.28285329    -0.21700
C1070       C  0.23848150  0.86766133  0.28337568    -0.21700
C1071       C  0.45708082  0.01550358  0.25401328    -0.21700
C1072       C  0.45582065  0.97670092  0.25330956    -0.21700
C1073       C  0.26349707  0.97077245  0.31284718    -0.17000
C1074       C  0.40383193  0.04183860  0.26246747    -0.17000
C1075       C  0.40227818  0.89801750  0.26500815    -0.17000
C1076       C  0.25964520  0.82814027  0.31379160    -0.17000
H1077       H  0.27985080  0.55109239  0.28916543     0.15900
H1078       H  0.35198873  0.59115917  0.26531208     0.15900
H1079       H  0.29985118  0.77147866  0.30642871     0.15900
H1080       H  0.37515708  0.81035317  0.28423004     0.15900
H1081       H  0.23906153  0.92560190  0.26641318     0.14200
H1082       H  0.23510732  0.84738811  0.26729109     0.14200
H1083       H  0.48142104  0.54119938  0.24230382     0.14200
H1084       H  0.48117565  0.97425776  0.24318758     0.14200
H1085       H  0.34049062  0.97284057  0.29579178     0.27400
H1086       H  0.32754731  0.90135821  0.28707425     0.27400
N1087       N  0.02024306  0.86847204  0.29035630    -0.35300
N1088       N  0.11272615  0.90354797  0.30870067    -0.55900
N1089       N  0.15263593  0.99912462  0.28665769    -0.35300
N1090       N  0.04224345  0.96429694  0.25882770    -0.55900
C1091       C  0.01616550  0.82991992  0.29970229     0.28300
C1092       C  0.98175567  0.85872352  0.27806217     0.28300
C1093       C  0.17172763  0.00095152  0.30910217     0.28300
C1094       C  0.14083092  0.03144638  0.28599379     0.28300
C1095       C  0.09423181  0.85939139  0.31521761     0.36900
C1096       C  0.15629700  0.92433030  0.31636817     0.36900
C1097       C  0.00516303  0.93607336  0.27225500     0.36900
C1098       C  0.06547229  0.00239675  0.27225252     0.36900
C1099       C  0.97491763  0.79588373  0.29282049    -0.20600
C1100       C  0.45344098  0.81320586  0.27968389    -0.20600
C1101       C  0.16647035  0.52862105  0.32429416    -0.20600
C1102       C  0.14863631  0.54900378  0.31013624    -0.20600
C1103       C  0.12688664  0.85363259  0.32602729    -0.21700
C1104       C  0.16353841  0.89292931  0.32763693    -0.21700
C1105       C  0.00616949  0.95479151  0.29516258    -0.21700
C1106       C  0.04394601  0.99650007  0.29514306    -0.21700
C1107       C  0.04769169  0.82469434  0.31488457    -0.17000
C1108       C  0.97385418  0.89121530  0.26564300    -0.17000
C1109       C  0.11176679  0.03388906  0.26807962    -0.17000
C1110       C  0.18785654  0.97159682  0.31715170    -0.17000
H1111       H  0.46097885  0.76168137  0.29640358     0.15900
H1112       H  0.42128725  0.79260574  0.27164364     0.15900
H1113       H  0.17236619  0.53400171  0.34402108     0.15900
H1114       H  0.13804974  0.57154476  0.31713811     0.15900
H1115       H  0.12586597  0.82585972  0.33504291     0.14200
H1116       H  0.19022174  0.89582482  0.33869329     0.14200
H1117       H  0.98264134  0.93942624  0.31041160     0.14200
H1118       H  0.05706775  0.51534462  0.31344695     0.14200
H1119       H  0.04740195  0.90035602  0.29255840     0.27400
H1120       H  0.14732264  0.97628696  0.27253297     0.27400
C1121       C  0.34903702  0.93876460  0.66793298    -0.01200
C1122       C  0.06594173  0.64576381  0.66708928    -0.01200
C1123       C  0.06033986  0.93455694  0.66638405    -0.01200
O1124       O  0.05088076  0.49485463  0.83679258    -0.80500
C1125       C  0.41353461  0.96210513  0.77004637     0.98800
O1126       O  0.41645165  0.93301912  0.78284508    -0.69600
O1127       O  0.49018445  0.93234017  0.77501253    -0.73200
Al1128     Al  0.46253154  0.93583967  0.80410466     1.49000
C1129       C  0.03122697  0.94844719  0.77161940     0.94100
O1130       O  0.06187808  0.55269133  0.77514288    -0.79400
O1131       O  0.49823791  0.55748399  0.83474102    -0.73000
Al1132     Al  0.05458021  0.52257316  0.80564357     1.90100
O1133       O  0.01595573  0.57772822  0.78346767    -0.72100
O1134       O  0.42119622  0.49318843  0.82545121    -0.71900
O1135       O  0.43754320  0.50561191  0.77466136    -0.77600
O1136       O  0.43326096  0.93474388  0.83318022    -0.75800
O1137       O  0.49544807  0.49697595  0.80409267    -1.11900
O1138       O  0.00061584  0.92570780  0.82566474    -0.71100
C1139       C  0.02749660  0.95189132  0.84178505     0.99600
C1140       C  0.04593479  0.57744673  0.76973545     0.96000
Al1141     Al  0.47035357  0.53101511  0.80435781     1.55600
O1142       O  0.05886419  0.47767955  0.78698981    -0.75700
C1143       C  0.41670817  0.95816366  0.83961962     1.00200
C1144       C  0.03839665  0.57346911  0.84028690     0.95100
O1145       O  0.06485950  0.57299177  0.82430633    -0.81100
C1146       C  0.26784083  0.55864517  0.58711067    -0.01200
C1147       C  0.45921038  0.74177299  0.58796977    -0.01200
C1148       C  0.25707445  0.74494167  0.58554326    -0.01200
O1149       O  0.38742817  0.67467075  0.41697634    -0.80500
C1150       C  0.28353063  0.71268894  0.48085795     0.98800
O1151       O  0.31416791  0.74186884  0.46717601    -0.69600
O1152       O  0.38328109  0.73618810  0.47615591    -0.73200
Al1153     Al  0.35679602  0.73592405  0.44639252     1.49000
C1154       C  0.40148376  0.71462424  0.48310232     0.94100
O1155       O  0.32884039  0.61745214  0.47451406    -0.79400
O1156       O  0.26689284  0.61803942  0.41470926    -0.73000
Al1157     Al  0.35672234  0.64688910  0.44584332     1.90100
O1158       O  0.26003861  0.59953511  0.46753024    -0.72100
O1159       O  0.26317470  0.68869492  0.42358202    -0.71900
O1160       O  0.26279248  0.67286943  0.47405791    -0.77600
O1161       O  0.33243850  0.74061873  0.41671119    -0.75800
O1162       O  0.32693885  0.67658086  0.44565151    -1.11900
O1163       O  0.40582902  0.74327822  0.42579331    -0.71100
C1164       C  0.40760594  0.71523371  0.41145972     0.99600
C1165       C  0.28962344  0.60170972  0.48220063     0.96000
Al1166     Al  0.26753690  0.64682057  0.44490416     1.55600
O1167       O  0.40324052  0.68691300  0.46840736    -0.75700
C1168       C  0.29232213  0.72042126  0.41045690     1.00200
C1169       C  0.28995124  0.60070592  0.40858626     0.95100
O1170       O  0.31705064  0.60016491  0.42401405    -0.81100
N1171       N  0.46540755  0.83947599  0.62955647    -0.35300
N1172       N  0.43683371  0.90260774  0.64658888    -0.55900
N1173       N  0.33525543  0.83773783  0.63176188    -0.35300
N1174       N  0.37811768  0.78319745  0.61024474    -0.55900
C1175       C  0.50434766  0.87804611  0.63361104     0.28300
C1176       C  0.47526023  0.81199409  0.61613150     0.28300
C1177       C  0.34855990  0.88225759  0.63266466     0.28300
C1178       C  0.32026715  0.82234148  0.60829430     0.28300
C1179       C  0.47385719  0.91332584  0.66063315     0.36900
C1180       C  0.41332195  0.91900954  0.65905413     0.36900
C1181       C  0.39647532  0.75657272  0.60582789     0.36900
C1182       C  0.33533777  0.76081322  0.60153870     0.36900
C1183       C  0.03782081  0.87566200  0.62149903    -0.20600
C1184       C  0.52138223  0.83291595  0.61398372    -0.20600
C1185       C  0.34854991  0.89663932  0.60873112    -0.20600
C1186       C  0.33145726  0.85959840  0.59345929    -0.20600
C1187       C  0.46990959  0.93259021  0.68221585    -0.21700
C1188       C  0.43667626  0.94061910  0.67970098    -0.21700
C1189       C  0.36426057  0.71765464  0.59517866    -0.21700
C1190       C  0.32871651  0.72170942  0.59112018    -0.21700
C1191       C  0.51174819  0.90858257  0.65315705    -0.17000
C1192       C  0.44357908  0.77058113  0.60463080    -0.17000
C1193       C  0.30424736  0.77710829  0.59969100    -0.17000
C1194       C  0.36960039  0.91143637  0.65338297    -0.17000
H1195       H  0.07115547  0.90124534  0.61939129     0.15900
H1196       H  0.54279152  0.82048921  0.60795890     0.15900
H1197       H  0.36196575  0.93071426  0.60256942     0.15900
H1198       H  0.32790133  0.86110052  0.57360926     0.15900
H1199       H  0.48749057  0.94265843  0.69929577     0.14200
H1200       H  0.43120655  0.95797608  0.69396884     0.14200
H1201       H  0.36607499  0.69033382  0.58712089     0.14200
H1202       H  0.30370631  0.69866601  0.57901298     0.14200
H1203       H  0.43503733  0.83045193  0.63825851     0.27400
H1204       H  0.33516175  0.81843108  0.64673711     0.27400
N1205       N  0.15366356  0.65043508  0.62338978    -0.35300
N1206       N  0.24094501  0.63922283  0.59701621    -0.55900
N1207       N  0.16182349  0.53294428  0.62786187    -0.35300
N1208       N  0.09132841  0.55456126  0.63892287    -0.55900
C1209       C  0.18374273  0.69117357  0.61369755     0.28300
C1210       C  0.11541324  0.65044561  0.62889756     0.28300
C1211       C  0.19668714  0.53028045  0.61751439     0.28300
C1212       C  0.12966389  0.49171064  0.63583543     0.28300
C1213       C  0.24175244  0.67214293  0.61139515     0.36900
C1214       C  0.24455646  0.60998782  0.61230175     0.36900
C1215       C  0.06905750  0.57532412  0.64813407     0.36900
C1216       C  0.07616620  0.51548142  0.65216948     0.36900
C1217       C  0.16352700  0.71721821  0.61394621    -0.20600
C1218       C  0.11971014  0.69007186  0.62052778    -0.20600
C1219       C  0.18732367  0.48709577  0.61918618    -0.20600
C1220       C  0.14577638  0.46289229  0.62955665    -0.20600
C1221       C  0.24396899  0.66248320  0.63621326    -0.21700
C1222       C  0.24447573  0.62300534  0.63679354    -0.21700
C1223       C  0.03775114  0.54711168  0.66477691    -0.21700
C1224       C  0.04565352  0.51371201  0.66895536    -0.21700
C1225       C  0.22707646  0.70222862  0.60352544    -0.17000
C1226       C  0.08290893  0.62228928  0.64704488    -0.17000
C1227       C  0.09013607  0.48211465  0.65101535    -0.17000
C1228       C  0.23480824  0.56608834  0.60523003    -0.17000
H1229       H  0.17773962  0.75235322  0.61049929     0.15900
H1230       H  0.09492748  0.70020449  0.62177561     0.15900
H1231       H  0.20755142  0.47337837  0.61359569     0.15900
H1232       H  0.13348884  0.92750335  0.63357855     0.15900
H1233       H  0.24116991  0.67996159  0.65223095     0.14200
H1234       H  0.24230107  0.60433817  0.65343389     0.14200
H1235       H  0.01944315  0.55398966  0.67787137     0.14200
H1236       H  0.03870878  0.49917976  0.68679162     0.14200
H1237       H  0.15967837  0.62466385  0.62743592     0.27400
H1238       H  0.16111894  0.56229525  0.62973114     0.27400
N1239       N  0.44100208  0.56671564  0.64864275    -0.35300
N1240       N  0.49271346  0.66765588  0.62410014    -0.55900
N1241       N  0.38627429  0.62690900  0.60188321    -0.35300
N1242       N  0.35061147  0.53659755  0.62911611    -0.55900
C1243       C  0.47570516  0.59493294  0.66391742     0.28300
C1244       C  0.41335999  0.52816383  0.66204525     0.28300
C1245       C  0.40936949  0.66715819  0.61247503     0.28300
C1246       C  0.34372486  0.60774666  0.61067702     0.28300
C1247       C  0.50956291  0.66995546  0.64712358     0.36900
C1248       C  0.48463732  0.70228212  0.62164686     0.36900
C1249       C  0.34677819  0.49645708  0.63487248     0.36900
C1250       C  0.31565155  0.52918385  0.61415296     0.36900
C1251       C  0.46584818  0.57631482  0.68716178    -0.20600
C1252       C  0.43214687  0.53459027  0.68527732    -0.20600
C1253       C  0.38465913  0.66979315  0.63222563    -0.20600
C1254       C  0.34291894  0.63200973  0.63097221    -0.20600
C1255       C  0.00562044  0.70220958  0.66049849    -0.21700
C1256       C  0.49215659  0.72384449  0.64425263    -0.22900
C1257       C  0.30993240  0.46356394  0.62268401    -0.21700
C1258       C  0.28978300  0.48348452  0.61061477    -0.21700
C1259       C  0.51645671  0.63624016  0.65792125    -0.17000
C1260       C  0.37092634  0.48927810  0.65441953    -0.17000
C1261       C  0.30933299  0.56455702  0.60402086    -0.17000
C1262       C  0.45250771  0.70040841  0.60480870    -0.17000
H1263       H  0.48045774  0.58800185  0.70471317     0.15900
H1264       H  0.42599167  0.51456892  0.70109597     0.15900
H1265       H  0.39514128  0.69659945  0.64552622     0.15900
H1266       H  0.31651311  0.62221292  0.64449190     0.15900
H1267       H  0.01043215  0.70913333  0.68014645     0.14200
H1268       H  0.48283310  0.74828257  0.64939779     0.14200
H1269       H  0.29699397  0.92702052  0.62346096     0.14200
H1270       H  0.25992914  0.46440305  0.60015728     0.14200
H1271       H  0.43813301  0.57225240  0.62979765     0.27400
H1272       H  0.40019196  0.61270615  0.59034809     0.27400
C1273       C  0.30238566  0.76787892  0.54375148     0.24900
C1274       C  0.26889852  0.73350326  0.55904673    -0.23200
C1275       C  0.24005607  0.69288645  0.54680454     0.19800
C1276       C  0.24114310  0.68921373  0.52097792     0.24800
C1277       C  0.27483924  0.72307215  0.50639813    -0.23200
C1278       C  0.30487267  0.76284251  0.51804046     0.19700
F1279       F  0.33695338  0.79734279  0.50458102    -0.13100
F1280       F  0.33420969  0.80662156  0.55339098    -0.15500
F1281       F  0.20753097  0.65272629  0.51006651    -0.15500
F1282       F  0.20744302  0.65743473  0.55911849    -0.13100
C1283       C  0.43611774  0.69399896  0.54713146     0.24900
C1284       C  0.43355347  0.72656155  0.56227167    -0.23200
C1285       C  0.42060618  0.75458722  0.54959023     0.19800
C1286       C  0.41268752  0.75140765  0.52425851     0.24800
C1287       C  0.41658643  0.72018027  0.50948292    -0.23200
C1288       C  0.42895754  0.69178000  0.52118027     0.19700
F1289       F  0.43555107  0.66264265  0.50745190    -0.13100
F1290       F  0.44898566  0.66623718  0.55694219    -0.15500
F1291       F  0.40302474  0.78140012  0.51409166    -0.15500
F1292       F  0.41852624  0.78855408  0.56075087    -0.13100
C1293       C  0.24504551  0.58930503  0.54906593     0.24900
C1294       C  0.28042678  0.59043967  0.56350922    -0.23200
C1295       C  0.31897740  0.60022193  0.54932493     0.19800
C1296       C  0.31871072  0.59785239  0.52354847     0.24800
C1297       C  0.28256307  0.59277681  0.50957504    -0.23200
C1298       C  0.24563253  0.58880354  0.52269161     0.19700
F1299       F  0.20856282  0.58076236  0.51012971    -0.13100
F1300       F  0.20650906  0.58169419  0.56004047    -0.15500
F1301       F  0.35373445  0.59724128  0.51234879    -0.15500
F1302       F  0.35528776  0.60337572  0.55947612    -0.13100
C1303       C  0.02158081  0.90066262  0.70909411     0.24900
C1304       C  0.05438882  0.93875792  0.69524886    -0.23200
C1305       C  0.08675952  0.97483161  0.70969886     0.19800
C1306       C  0.08362413  0.97408811  0.73571036     0.24800
C1307       C  0.04651339  0.93969154  0.74791307    -0.23200
C1308       C  0.01742681  0.90181331  0.73469429     0.19700
F1309       F  0.48292716  0.86685885  0.74639149    -0.13100
F1310       F  0.48953537  0.86386861  0.69770743    -0.15500
F1311       F  0.11580664  0.00819112  0.74894466    -0.15500
F1312       F  0.12075623  0.01167194  0.69889958    -0.13100
C1313       C  0.04860321  0.64755160  0.71466331     0.24900
C1314       C  0.06480955  0.63086229  0.69527004    -0.23200
C1315       C  0.08915482  0.61032663  0.70391558     0.19800
C1316       C  0.08611887  0.59663133  0.72859997     0.24800
C1317       C  0.06000990  0.60362273  0.74607413    -0.23200
C1318       C  0.04440264  0.63249438  0.73938431     0.19700
F1319       F  0.52450713  0.64498541  0.75645901    -0.13100
F1320       F  0.03046072  0.67310412  0.70926645    -0.15500
F1321       F  0.10958077  0.57681206  0.73530579    -0.15500
F1322       F  0.11763598  0.60436051  0.68914118    -0.13100
C1323       C  0.37303845  0.90947578  0.73465877     0.24900
C1324       C  0.38386506  0.94859229  0.74787718    -0.23200
C1325       C  0.37002120  0.97713214  0.73799904     0.19800
C1326       C  0.35426149  0.97160906  0.71350397     0.24800
C1327       C  0.35582304  0.93945392  0.69740416    -0.23200
C1328       C  0.35715001  0.90388117  0.71015844     0.19700
F1329       F  0.34851689  0.86594286  0.69814345    -0.13100
F1330       F  0.38149644  0.87835335  0.74443122    -0.15500
F1331       F  0.34705458  0.00396111  0.70436477    -0.15500
F1332       F  0.37260886  0.51330646  0.75118843    -0.13100
C1333       C  0.41995099  0.53092961  0.20615286     0.24900
C1334       C  0.44722968  0.57294055  0.21765638    -0.23200
C1335       C  0.47773107  0.60773196  0.20108532     0.19800
C1336       C  0.48287412  0.60005554  0.17599406     0.24800
C1337       C  0.45479862  0.55875745  0.16540726    -0.23200
C1338       C  0.42175880  0.52535640  0.18061360     0.19700
F1339       F  0.38941869  0.48683203  0.17066635    -0.13100
F1340       F  0.38808193  0.49507520  0.21868956    -0.15500
F1341       F  0.51383330  0.63411666  0.16178523    -0.15500
F1342       F  0.49999535  0.65080527  0.20795112    -0.13100
C1343       C  0.48128432  0.90854784  0.20904539     0.24900
C1344       C  0.44400126  0.90471931  0.22252951    -0.23200
C1345       C  0.41144949  0.90850485  0.20807598     0.19800
C1346       C  0.41370963  0.91065696  0.18199083     0.24800
C1347       C  0.44923136  0.91120449  0.16907310    -0.23200
C1348       C  0.48198641  0.90844798  0.18300387     0.19700
F1349       F  0.01388023  0.90319349  0.17131475    -0.13100
F1350       F  0.51545762  0.90766837  0.22058654    -0.15500
F1351       F  0.37975470  0.91018968  0.16933413    -0.15500
F1352       F  0.37519264  0.90704480  0.21886894    -0.13100
C1353       C  0.08750549  0.51234626  0.18780424     0.24900
C1354       C  0.08507843  0.54347971  0.17231795    -0.23200
C1355       C  0.09322890  0.58359333  0.18311056     0.19800
C1356       C  0.10438019  0.59279043  0.20801506     0.24800
C1357       C  0.10240658  0.56054960  0.22533503    -0.23200
C1358       C  0.09493365  0.51994634  0.21367588     0.19700
F1359       F  0.10111501  0.48952676  0.22608707    -0.13100
F1360       F  0.08575766  0.47568474  0.17775358    -0.15500
F1361       F  0.12512925  0.63649736  0.21293886    -0.15500
F1362       F  0.09515631  0.61703943  0.16892180    -0.13100
C1363       C  0.20176925  0.99084756  0.56396134     0.24900
C1364       C  0.24710301  0.01288152  0.57207307    -0.23200
C1365       C  0.27614884  0.00236082  0.55798307     0.19800
C1366       C  0.26174662  0.97450613  0.53727183     0.24800
C1367       C  0.21783621  0.95559549  0.52912835    -0.23200
C1368       C  0.18759926  0.96225445  0.54350194     0.19700
F1369       F  0.14408090  0.94335121  0.53691223    -0.13100
F1370       F  0.17088080  0.99993996  0.57341983    -0.15500
F1371       F  0.29187237  0.96744021  0.52468989    -0.15500
F1372       F  0.32013685  0.52145741  0.56377896    -0.13100
C1373       C  0.18067165  0.75020524  0.53876808     0.24900
C1374       C  0.20634101  0.79516746  0.53244854    -0.23200
C1375       C  0.23155969  0.82511923  0.55157402     0.19800
C1376       C  0.23940966  0.80869935  0.57381852     0.24800
C1377       C  0.22674126  0.76351159  0.57557625    -0.23200
C1378       C  0.18865894  0.73493022  0.56080246     0.19700
F1379       F  0.16220953  0.69089192  0.56552254    -0.13100
F1380       F  0.14861458  0.72029913  0.52345837    -0.15500
F1381       F  0.24725162  0.83297980  0.59489552    -0.15500
F1382       F  0.24559565  0.86923901  0.54956447    -0.13100
C1383       C  0.01712752  0.80911708  0.56157910     0.24900
C1384       C  0.00654649  0.76916208  0.57518572    -0.23200
C1385       C  0.03154148  0.74839344  0.56804573     0.19800
C1386       C  0.05831820  0.76178268  0.54661929     0.24800
C1387       C  0.06210795  0.79678118  0.53159587    -0.23200
C1388       C  0.04375609  0.82201590  0.54027687     0.19700
F1389       F  0.04931607  0.85824007  0.52742213    -0.13100
F1390       F  0.99816090  0.83413633  0.56696054    -0.15500
F1391       F  0.07805094  0.73790791  0.53980931    -0.15500
F1392       F  0.02641957  0.71121956  0.57924885    -0.13100
C1393       C  0.30803912  0.54596131  0.35152899     0.24900
C1394       C  0.26914859  0.53566732  0.33763738    -0.23200
C1395       C  0.25588848  0.56736619  0.34093196     0.19800
C1396       C  0.26086613  0.58768107  0.36430487     0.24800
C1397       C  0.28625166  0.58220359  0.38299702    -0.23200
C1398       C  0.31396742  0.56547271  0.37514798     0.19700
F1399       F  0.34644694  0.56761929  0.39006902    -0.13100
F1400       F  0.33661440  0.53206129  0.34415726    -0.15500
F1401       F  0.24460358  0.61568410  0.36762921    -0.15500
F1402       F  0.25066227  0.58746153  0.32056746    -0.13100
C1403       C  0.19053501  0.96486025  0.37265054     0.24900
C1404       C  0.22586486  0.96671675  0.35772353    -0.23200
C1405       C  0.25576303  0.95654434  0.37011809     0.19800
C1406       C  0.25231541  0.94836203  0.39572531     0.24800
C1407       C  0.21638869  0.94514370  0.40980952    -0.23200
C1408       C  0.18570398  0.95369425  0.39794331     0.19700
F1409       F  0.15002346  0.95034289  0.41063753    -0.13100
F1410       F  0.15854439  0.97162541  0.36303999    -0.15500
F1411       F  0.28530746  0.94465894  0.40687201    -0.15500
F1412       F  0.29035253  0.95675092  0.35805570    -0.13100
C1413       C  0.22454840  0.71916089  0.35594486     0.24900
C1414       C  0.25114894  0.76234674  0.34463933    -0.23200
C1415       C  0.29456549  0.78885359  0.35511368     0.19800
C1416       C  0.30822965  0.77473578  0.37584532     0.24800
C1417       C  0.27962327  0.73383579  0.38734358    -0.23200
C1418       C  0.23879761  0.70550375  0.37643099     0.19700
F1419       F  0.21063429  0.66483667  0.38649843    -0.13100
F1420       F  0.18190060  0.69045441  0.34960959    -0.15500
F1421       F  0.34853477  0.80330275  0.38582410    -0.15500
F1422       F  0.32300164  0.83115568  0.34765659    -0.13100
C1423       C  0.24479510  0.83616997  0.36955991     0.24900
C1424       C  0.21222694  0.79974681  0.35509910    -0.23200
C1425       C  0.17496290  0.76668812  0.36892475     0.19800
C1426       C  0.17370362  0.76690889  0.39485107     0.24800
C1427       C  0.20719680  0.80172624  0.40860881    -0.23200
C1428       C  0.24296147  0.83595814  0.39568943     0.19700
F1429       F  0.27771889  0.86826628  0.40842747    -0.13100
F1430       F  0.28210467  0.86986186  0.35909757    -0.15500
F1431       F  0.14055012  0.73070171  0.40667396    -0.15500
F1432       F  0.14211712  0.72962915  0.35821915    -0.13100
C1433       C  0.44547922  0.70061071  0.37655603     0.24900
C1434       C  0.43249262  0.72874483  0.38767813    -0.23200
C1435       C  0.44044309  0.76726197  0.37491139     0.19800
C1436       C  0.46549313  0.78010178  0.35271394     0.24800
C1437       C  0.48490274  0.75520748  0.34287598    -0.23200
C1438       C  0.47007254  0.71272503  0.35463662     0.19700
F1439       F  0.48476885  0.68467782  0.34768329    -0.13100
F1440       F  0.43797704  0.66246055  0.38804011    -0.15500
F1441       F  0.47527813  0.82022999  0.34334973    -0.15500
F1442       F  0.42558864  0.79382772  0.38443468    -0.13100
C1443       C  0.06708726  0.76397822  0.39760534     0.24900
C1444       C  0.06988777  0.80070752  0.41020964    -0.23200
C1445       C  0.06601569  0.83282279  0.39637661     0.19800
C1446       C  0.06022197  0.82903292  0.37074195     0.24800
C1447       C  0.05715773  0.79202487  0.35728101    -0.23200
C1448       C  0.06330194  0.76081542  0.37152058     0.19700
F1449       F  0.06248068  0.72514167  0.36072721    -0.13100
F1450       F  0.06704085  0.73041312  0.41058320    -0.15500
F1451       F  0.05514996  0.86128855  0.35959818    -0.15500
F1452       F  0.06655626  0.86806473  0.40782774    -0.13100
C1453       C  0.42561803  0.64963993  0.22647004     0.24900
C1454       C  0.40658808  0.60403065  0.23352903    -0.23200
C1455       C  0.36563831  0.57327618  0.22161579     0.19800
C1456       C  0.34992159  0.58549464  0.20151896     0.24800
C1457       C  0.37275098  0.62896891  0.19271429    -0.23200
C1458       C  0.40900884  0.66156154  0.20599645     0.19700
F1459       F  0.42983796  0.70466893  0.19841924    -0.13100
F1460       F  0.46354817  0.68238878  0.23666122    -0.15500
F1461       F  0.31441680  0.55309003  0.18909576    -0.15500
F1462       F  0.34261415  0.52927541  0.22723052    -0.13100
C1463       C  0.41232417  0.79162704  0.20252459     0.24900
C1464       C  0.37023149  0.77951528  0.19288699    -0.23200
C1465       C  0.34257738  0.79006856  0.20690714     0.19800
C1466       C  0.35817409  0.81588165  0.22866898     0.24800
C1467       C  0.40284350  0.83232801  0.23763481    -0.23200
C1468       C  0.42711961  0.81476970  0.22483534     0.19700
F1469       F  0.46968729  0.82705721  0.23065659    -0.13100
F1470       F  0.44197244  0.78502679  0.18910511    -0.15500
F1471       F  0.33054195  0.82918750  0.23832181    -0.15500
F1472       F  0.30110037  0.77805247  0.19874618    -0.13100
C1473       C  0.19735909  0.64339150  0.23377747     0.24900
C1474       C  0.17586810  0.59852388  0.24285425    -0.23200
C1475       C  0.19086094  0.57138110  0.23111256     0.19800
C1476       C  0.20975755  0.58172996  0.20707912     0.24800
C1477       C  0.21972884  0.62210897  0.19569075    -0.23200
C1478       C  0.21744812  0.65423521  0.21039384     0.19700
F1479       F  0.23041150  0.69556895  0.20135228    -0.13100
F1480       F  0.19217217  0.67603123  0.24415262    -0.15500
F1481       F  0.21654000  0.55137477  0.19474391    -0.15500
F1482       F  0.18100790  0.53141776  0.24059239    -0.13100
C1483       C  0.46862720  0.60893851  0.05007452     0.24900
C1484       C  0.46402551  0.56724320  0.04701047    -0.23200
C1485       C  0.45286244  0.54698361  0.02338287     0.19800
C1486       C  0.43917388  0.56576900  0.00443632     0.24800
C1487       C  0.43036015  0.60022230  0.01053611    -0.23200
C1488       C  0.45244835  0.62562043  0.03223251     0.19700
F1489       F  0.44846276  0.66064662  0.03984962    -0.13100
F1490       F  0.48332359  0.63103398  0.07201210    -0.15500
F1491       F  0.43502914  0.55067249  0.98074542    -0.15500
F1492       F  0.45456481  0.50932551  0.01885675    -0.13100
C1493       C  0.34900923  0.58159541  0.06684507     0.24900
C1494       C  0.35304394  0.62242273  0.07330928    -0.23200
C1495       C  0.35345881  0.65002532  0.05419987     0.19800
C1496       C  0.35921994  0.64158856  0.02961562     0.24800
C1497       C  0.36638160  0.60691805  0.02301309    -0.23200
C1498       C  0.35446977  0.57327784  0.04183333     0.19700
F1499       F  0.35463904  0.53520138  0.03716381    -0.13100
F1500       F  0.34295365  0.55121026  0.08466746    -0.15500
F1501       F  0.35634962  0.66669419  0.01225729    -0.15500
F1502       F  0.34800041  0.68529873  0.05924724    -0.13100
C1503       C  0.39714524  0.88935214  0.03894768     0.24900
C1504       C  0.44201811  0.90674980  0.04570466    -0.23200
C1505       C  0.47295136  0.91454971  0.02654326     0.19800
C1506       C  0.45718966  0.89487824  0.00324724     0.24800
C1507       C  0.41256094  0.86146572  0.00117385    -0.23200
C1508       C  0.38316671  0.87023138  0.01563353     0.19700
F1509       F  0.33940345  0.85237348  0.01019664    -0.13100
F1510       F  0.36652909  0.88914351  0.05505202    -0.15500
F1511       F  0.48128394  0.91559966  0.98243786    -0.15500
F1512       F  0.51694925  0.94383847  0.02958868    -0.13100
C1513       C  0.33109102  0.76876846  0.05660931     0.24900
C1514       C  0.36400633  0.77277353  0.07309383    -0.23200
C1515       C  0.40726953  0.78917540  0.06391464     0.19800
C1516       C  0.41693957  0.80043070  0.03884756     0.24800
C1517       C  0.38312185  0.79113434  0.02099351    -0.23200
C1518       C  0.33934905  0.77499047  0.03104352     0.19700
F1519       F  0.30487708  0.77028367  0.01710941    -0.13100
F1520       F  0.29108001  0.76115291  0.06537440    -0.15500
F1521       F  0.46047911  0.82513294  0.03298172    -0.15500
F1522       F  0.44111542  0.79640395  0.07935280    -0.13100
C1523       C  0.13518298  0.53349749  0.01140402     0.24900
C1524       C  0.15326500  0.57811916  0.00243701    -0.23200
C1525       C  0.13719382  0.60379827  0.01542909     0.19800
C1526       C  0.11373639  0.58942341  0.03791723     0.24800
C1527       C  0.10491962  0.54919237  0.04871896    -0.23200
C1528       C  0.11348926  0.52029252  0.03455757     0.19700
F1529       F  0.10372454  0.47989607  0.04381146    -0.13100
F1530       F  0.14408702  0.50383065  0.00038233    -0.15500
F1531       F  0.10191369  0.61666354  0.04979652    -0.15500
F1532       F  0.15009679  0.64644151  0.00925037    -0.13100
C1533       C  0.23205422  0.58582342  0.05719496     0.24900
C1534       C  0.23156138  0.62101884  0.07014150    -0.23200
C1535       C  0.22961574  0.65385773  0.05614195     0.19800
C1536       C  0.23067015  0.65333967  0.03005061     0.24800
C1537       C  0.22619996  0.61564484  0.01657289    -0.23200
C1538       C  0.22887110  0.58278900  0.03117168     0.19700
F1539       F  0.22369041  0.54483041  0.02086197    -0.13100
F1540       F  0.23333713  0.55251572  0.06980620    -0.15500
F1541       F  0.23093526  0.68810801  0.01839629    -0.15500
F1542       F  0.22474847  0.68589557  0.06774776    -0.13100
C1543       C  0.25724784  0.92563664  0.70407550     0.24900
C1544       C  0.25045883  0.88634577  0.71563397    -0.23200
C1545       C  0.25405753  0.85521504  0.70023949     0.19800
C1546       C  0.27365399  0.86785101  0.67642316     0.24800
C1547       C  0.29616088  0.91342436  0.66920704    -0.23200
C1548       C  0.27611249  0.93704377  0.67992503     0.19700
F1549       F  0.28482843  0.97707659  0.67083753    -0.13100
F1550       F  0.25229986  0.95627926  0.71723012    -0.15500
F1551       F  0.27477549  0.83637386  0.66215876    -0.15500
F1552       F  0.24176148  0.81366507  0.70857908    -0.13100
C1553       C  0.15569098  0.72408339  0.70526759     0.24900
C1554       C  0.13304097  0.74619382  0.71282848    -0.23200
C1555       C  0.11146201  0.75672985  0.69420087     0.19800
C1556       C  0.09880232  0.73215567  0.67226813     0.24800
C1557       C  0.10529318  0.69556927  0.67029917    -0.23200
C1558       C  0.14536239  0.70294702  0.68202017     0.19700
F1559       F  0.16697227  0.68136704  0.67460806    -0.13100
F1560       F  0.18467646  0.72032995  0.72055046    -0.15500
F1561       F  0.09178900  0.75046667  0.65170903    -0.15500
F1562       F  0.10512507  0.79185249  0.69669466    -0.13100
C1563       C  0.06799141  0.84564777  0.69974957     0.24900
C1564       C  0.10571344  0.87406573  0.71344628    -0.23200
C1565       C  0.13739011  0.91432963  0.70255532     0.19800
C1566       C  0.12790618  0.93009244  0.68139692     0.24800
C1567       C  0.08456011  0.90660642  0.67034403    -0.23200
C1568       C  0.05937114  0.86031043  0.67723774     0.19700
F1569       F  0.02026510  0.83138062  0.66662533    -0.13100
F1570       F  0.03770732  0.80484536  0.70883357    -0.15500
F1571       F  0.15686493  0.97394523  0.67753347    -0.15500
F1572       F  0.17502913  0.94336015  0.71466568    -0.13100
C1573       C  0.11378605  0.64430504  0.89113070     0.24900
C1574       C  0.08166949  0.64637792  0.90697064    -0.23200
C1575       C  0.04017533  0.60698158  0.90736141     0.19800
C1576       C  0.02586879  0.58102003  0.88574674     0.24800
C1577       C  0.05472027  0.59273960  0.86496733    -0.23200
C1578       C  0.10030103  0.62005832  0.86921206     0.19700
F1579       F  0.13157179  0.62363380  0.85245417    -0.13100
F1580       F  0.15761924  0.66541920  0.89657153    -0.15500
F1581       F  0.98590792  0.54312288  0.88578583    -0.15500
F1582       F  0.01801601  0.58929758  0.92908142    -0.13100
C1583       C  0.13893251  0.75356788  0.85481661     0.24900
C1584       C  0.10733330  0.73097209  0.83632716    -0.23200
C1585       C  0.06377757  0.69982250  0.84429825     0.19800
C1586       C  0.05506380  0.68938848  0.87006906     0.24800
C1587       C  0.08918551  0.71263113  0.88819891    -0.23200
C1588       C  0.12509924  0.75041851  0.87930338     0.19700
F1589       F  0.14202631  0.78643855  0.89354143    -0.13100
F1590       F  0.18268506  0.78113144  0.84931821    -0.15500
F1591       F  0.01365672  0.65748727  0.87686096    -0.15500
F1592       F  0.03069987  0.67845920  0.82750185    -0.13100
C1593       C  0.36884168  0.97042573  0.90085173     0.24900
C1594       C  0.33910085  0.92496760  0.90686008    -0.23200
C1595       C  0.34823160  0.89376773  0.89452155     0.19800
C1596       C  0.37417656  0.90516037  0.87322530     0.24800
C1597       C  0.39300027  0.94812937  0.86354369    -0.23200
C1598       C  0.39237224  0.98140333  0.87812472     0.19700
F1599       F  0.41096748  0.52679193  0.86943899    -0.13100
F1600       F  0.36900037  0.00408811  0.91365510    -0.15500
F1601       F  0.37819416  0.87271958  0.86126661    -0.15500
F1602       F  0.33224492  0.85138407  0.90236676    -0.13100
C1603       C  0.20857399  0.86753773  0.86123714     0.24900
C1604       C  0.23955675  0.88973249  0.84182834    -0.23200
C1605       C  0.27723229  0.92985108  0.84807812     0.19800
C1606       C  0.28670104  0.94041724  0.87328397     0.24800
C1607       C  0.26622202  0.90648484  0.89193398    -0.23200
C1608       C  0.22232610  0.87506315  0.88625611     0.19700
F1609       F  0.19229340  0.85732044  0.90498214    -0.13100
F1610       F  0.16481611  0.84240510  0.85593052    -0.15500
F1611       F  0.31006777  0.98407840  0.87946964    -0.15500
F1612       F  0.30146893  0.96047163  0.83023959    -0.13100
C1613       C  0.01870747  0.87298030  0.89306620     0.24900
C1614       C  0.05535216  0.90263407  0.90800705    -0.23200
C1615       C  0.06109520  0.94547758  0.90846156     0.19800
C1616       C  0.05261014  0.96283494  0.88675155     0.24800
C1617       C  0.03151303  0.93444054  0.86631432    -0.23200
C1618       C  0.00992176  0.88843804  0.87100423     0.19700
F1619       F  0.98091301  0.85848138  0.85448390    -0.13100
F1620       F  0.99310375  0.82932679  0.89879012    -0.15500
F1621       F  0.06286855  0.00607863  0.88623747    -0.15500
F1622       F  0.06630209  0.96643230  0.93058389    -0.13100
C1623       C  0.13406542  0.91270400  0.87343544     0.24900
C1624       C  0.10411521  0.87795194  0.88973946    -0.23200
C1625       C  0.07461370  0.83652145  0.87798102     0.19800
C1626       C  0.07293682  0.83156770  0.85226594     0.24800
C1627       C  0.10163584  0.86659132  0.83653097    -0.23200
C1628       C  0.13256994  0.90721360  0.84744684     0.19700
F1629       F  0.16218370  0.94182645  0.83307013    -0.13100
F1630       F  0.16458879  0.95308505  0.88225698    -0.15500
F1631       F  0.04151916  0.79183180  0.84279292    -0.15500
F1632       F  0.04191055  0.80132370  0.89032471    -0.13100
C1633       C  0.59262830  0.39167524  0.91499094    -0.01200
C1634       C  0.79046525  0.40885607  0.91643773    -0.01200
C1635       C  0.59225710  0.19455957  0.91406268    -0.01200
O1636       O  0.65580564  0.38696019  0.74487003    -0.80500
C1637       C  0.62179322  0.25036492  0.81033357     0.98800
O1638       O  0.59346925  0.24799352  0.79484461    -0.69600
O1639       O  0.58804905  0.31849317  0.80235675    -0.73200
Al1640     Al  0.59803617  0.29498977  0.77326708     1.49000
C1641       C  0.60631363  0.35866913  0.80891417     0.94100
O1642       O  0.70626899  0.39914380  0.80593256    -0.79400
O1643       O  0.72652783  0.33958327  0.75030538    -0.73000
Al1644     Al  0.67964651  0.39021184  0.77518383     1.90100
O1645       O  0.73112335  0.35208349  0.80348078    -0.72100
O1646       O  0.66221749  0.26225563  0.75482225    -0.71900
O1647       O  0.66265936  0.27423563  0.80568442    -0.77600
O1648       O  0.60545319  0.27020875  0.74428382    -0.75800
O1649       O  0.65705723  0.33119797  0.77591919    -1.11900
O1650       O  0.58796522  0.33266845  0.75076320    -0.71100
C1651       C  0.61698686  0.36377059  0.73731332     0.99600
C1652       C  0.72631369  0.38127142  0.81531066     0.96000
Al1653     Al  0.69328750  0.30890326  0.77850522     1.55600
O1654       O  0.63133118  0.38902679  0.79372625    -0.75700
C1655       C  0.63439495  0.25971048  0.73885364     1.00200
C1656       C  0.73673236  0.37722666  0.74204275     0.95100
O1657       O  0.73213893  0.40403563  0.75601648    -0.81100
N1658       N  0.82073035  0.01191254  0.95255487    -0.35300
N1659       N  0.70826449  0.43128597  0.92390076    -0.55900
N1660       N  0.67515464  0.99555077  0.95618060    -0.35300
N1661       N  0.78550699  0.07418758  0.98427575    -0.55900
C1662       C  0.81147501  0.46930462  0.95137933     0.28300
C1663       C  0.84487729  0.03173492  0.97327051     0.28300
C1664       C  0.65131774  0.47554335  0.93511878     0.28300
C1665       C  0.68398810  0.03849481  0.95643137     0.28300
C1666       C  0.73561818  0.42623423  0.93987568     0.36900
C1667       C  0.66877985  0.41685229  0.93609196     0.36900
C1668       C  0.82577641  0.08935010  0.97281464     0.36900
C1669       C  0.75958071  0.08161910  0.96841356     0.36900
C1670       C  0.82734299  0.45976992  0.97254882    -0.20600
C1671       C  0.84861712  0.99922703  0.98650247    -0.20600
C1672       C  0.65079559  0.50877522  0.92064817    -0.20600
C1673       C  0.66996155  0.04687765  0.93410711    -0.20600
C1674       C  0.71515668  0.41245071  0.96292382    -0.21700
C1675       C  0.67304601  0.40654094  0.96052353    -0.21700
C1676       C  0.82485346  0.10511770  0.94923337    -0.21700
C1677       C  0.78272233  0.09958338  0.94628410    -0.21700
C1678       C  0.78053987  0.43824196  0.93466721    -0.17000
C1679       C  0.85686674  0.07629122  0.98041899    -0.17000
C1680       C  0.71484790  0.07123449  0.97329659    -0.17000
C1681       C  0.63739855  0.42941344  0.92875965    -0.17000
H1682       H  0.82057700  0.42751211  0.97902321     0.15900
H1683       H  0.86211828  0.00071666  0.00452948     0.15900
H1684       H  0.64131745  0.50661623  0.90137169     0.15900
H1685       H  0.67654115  0.07897422  0.92725281     0.15900
H1686       H  0.72960657  0.40835714  0.97981786     0.14200
H1687       H  0.65014010  0.40031996  0.97579145     0.14200
H1688       H  0.85077288  0.11645345  0.93509292     0.14200
H1689       H  0.77048757  0.10807592  0.92989215     0.14200
H1690       H  0.81000834  0.02620856  0.93916097     0.27400
H1691       H  0.68521271  0.98168628  0.97015782     0.27400
C1692       C  0.70371365  0.10378177  0.98951604    -0.01200
C1693       C  0.89753119  0.31398828  0.99320837    -0.01200
C1694       C  0.89520387  0.11023559  0.99812556    -0.01200
O1695       O  0.88846594  0.16889312  0.15325792    -0.80500
C1696       C  0.74778449  0.13256108  0.09616983     0.98800
O1697       O  0.76430073  0.11091276  0.10535408    -0.69600
O1698       O  0.83708458  0.11324588  0.11544103    -0.73200
Al1699     Al  0.79301960  0.11769750  0.13519039     1.49000
C1700       C  0.85921690  0.14069772  0.09834104     0.94100
O1701       O  0.88493818  0.25671953  0.11219125    -0.79400
O1702       O  0.82645590  0.25062295  0.15680797    -0.73000
Al1703     Al  0.87946425  0.20887805  0.13263930     1.90100
O1704       O  0.81599996  0.23692727  0.10453311    -0.72100
O1705       O  0.75708555  0.17524664  0.16200395    -0.71900
O1706       O  0.74549785  0.16242404  0.10901063    -0.77600
O1707       O  0.74315140  0.10787276  0.15536095    -0.75800
O1708       O  0.82006846  0.17722355  0.13364790    -1.11900
O1709       O  0.82014015  0.12067824  0.16494100    -0.71100
C1710       C  0.86122925  0.14111787  0.16887612     0.99600
C1711       C  0.85625789  0.25761592  0.09830264     0.96000
Al1712     Al  0.78821141  0.20422045  0.13316171     1.55600
O1713       O  0.88016055  0.18179213  0.10274222    -0.75700
C1714       C  0.74126386  0.13595857  0.16938987     1.00200
C1715       C  0.85940671  0.25497681  0.16946038     0.95100
O1716       O  0.88192509  0.23779933  0.16206466    -0.81100
N1717       N  0.99418300  0.32248949  0.95111053    -0.35300
N1718       N  0.91770619  0.22289022  0.97954799    -0.55900
N1719       N  0.99702984  0.18886488  0.95913977    -0.35300
N1720       N  0.57438266  0.28192147  0.92361847    -0.55900
C1721       C  0.97700547  0.33373222  0.97088338     0.28300
C1722       C  0.53889533  0.35054647  0.95047427     0.28300
C1723       C  0.95412700  0.15589071  0.96303652     0.28300
C1724       C  0.51544270  0.17801602  0.93972131     0.28300
C1725       C  0.93832731  0.26411990  0.99027816     0.36900
C1726       C  0.93452845  0.19873610  0.99038756     0.36900
C1727       C  0.58371789  0.31800510  0.93796251     0.36900
C1728       C  0.58064606  0.25243437  0.93727156     0.36900
C1729       C  0.01375721  0.36644538  0.98387415    -0.20600
C1730       C  0.55169099  0.37935789  0.97009743    -0.20600
C1731       C  0.94380423  0.12391371  0.94503744    -0.20600
C1732       C  0.48112680  0.13891458  0.92975592    -0.20600
C1733       C  0.97343411  0.26749196  0.00445181    -0.21700
C1734       C  0.97072667  0.22684498  0.00465708    -0.21700
C1735       C  0.59335831  0.30916730  0.96172464    -0.21700
C1736       C  0.59346513  0.26932690  0.96097715    -0.21700
C1737       C  0.93521953  0.30235404  0.98204313    -0.17000
C1738       C  0.56847248  0.34925247  0.93278838    -0.17000
C1739       C  0.56124406  0.20611132  0.93111411    -0.17000
C1740       C  0.92503584  0.15558584  0.98246457    -0.17000
H1741       H  0.01543497  0.37698553  0.00284593     0.15900
H1742       H  0.58521403  0.40379188  0.97533642     0.15900
H1743       H  0.91188053  0.09467759  0.94169682     0.15900
H1744       H  0.48013793  0.12334369  0.91239346     0.15900
H1745       H  0.00086468  0.29704706  0.01234664     0.14200
H1746       H  0.99601024  0.22057682  0.01207918     0.14200
H1747       H  0.59630799  0.32757231  0.97853804     0.14200
H1748       H  0.59677289  0.25197144  0.97685449     0.14200
H1749       H  0.97642153  0.29494228  0.93957797     0.27400
H1750       H  0.01364202  0.21707040  0.97003974     0.27400
N1751       N  0.80298700  0.31875560  0.95496215    -0.35300
N1752       N  0.78071545  0.22609718  0.96455087    -0.55900
N1753       N  0.68866035  0.19216780  0.94995834    -0.35300
N1754       N  0.70457050  0.29096867  0.93625774    -0.55900
C1755       C  0.84413715  0.32585504  0.96165884     0.28300
C1756       C  0.80745181  0.35813864  0.94667699     0.28300
C1757       C  0.68258855  0.15376565  0.96062012     0.28300
C1758       C  0.64792753  0.18743696  0.94502325     0.28300
C1759       C  0.82359698  0.24846432  0.97321541     0.36900
C1760       C  0.76320859  0.18197747  0.97082772     0.36900
C1761       C  0.73974894  0.32142771  0.92219265     0.36900
C1762       C  0.68037791  0.25530930  0.92109647     0.36900
C1763       C  0.87492580  0.36961975  0.95618102    -0.20600
C1764       C  0.85199318  0.39059332  0.94980583    -0.20600
C1765       C  0.63707590  0.12336168  0.96029152    -0.20600
C1766       C  0.61576301  0.14615830  0.95361656    -0.20600
C1767       C  0.83202838  0.21878560  0.98426006    -0.21700
C1768       C  0.79662976  0.17799050  0.98177766    -0.21700
C1769       C  0.73978993  0.30338430  0.89922656    -0.21700
C1770       C  0.70403276  0.26120625  0.89905433    -0.21700
C1771       C  0.85422531  0.29554405  0.97482075    -0.17000
C1772       C  0.77576159  0.36249913  0.93084308    -0.17000
C1773       C  0.64026433  0.21543980  0.92831088    -0.17000
C1774       C  0.71646821  0.14728909  0.97241676    -0.17000
H1775       H  0.91081751  0.38567223  0.95665602     0.15900
H1776       H  0.86861160  0.42585130  0.94615233     0.15900
H1777       H  0.61972584  0.08842855  0.96495567     0.15900
H1778       H  0.58029238  0.13279423  0.95393790     0.15900
H1779       H  0.85750485  0.22658164  0.99700991     0.14200
H1780       H  0.79498455  0.15035758  0.99104784     0.14200
H1781       H  0.76255393  0.31875847  0.88373795     0.14200
H1782       H  0.69568988  0.23915021  0.88339878     0.14200
H1783       H  0.77281026  0.28917526  0.95643252     0.27400
H1784       H  0.71873821  0.21936985  0.94444587     0.27400
C1785       C  0.53243332  0.27916249  0.33178827    -0.01200
C1786       C  0.72708272  0.28515387  0.32996650    -0.01200
C1787       C  0.73620244  0.48518521  0.33021356    -0.01200
O1788       O  0.61010295  0.28645084  0.50225125    -0.80500
C1789       C  0.70938580  0.42587309  0.43521849     0.98800
O1790       O  0.67941589  0.42500718  0.44939190    -0.69600
O1791       O  0.60912493  0.35062349  0.44244018    -0.73200
Al1792     Al  0.63813295  0.37762402  0.47151889     1.49000
C1793       C  0.58888939  0.31034770  0.43656532     0.94100
O1794       O  0.66127533  0.28605778  0.44171800    -0.79400
O1795       O  0.72869632  0.35025206  0.50098758    -0.73000
Al1796     Al  0.63711112  0.28843568  0.47171772     1.90100
O1797       O  0.73125872  0.33469729  0.44875464    -0.72100
O1798       O  0.73370329  0.42512503  0.49223113    -0.71900
O1799       O  0.73010500  0.40652762  0.44161292    -0.77600
O1800       O  0.66499326  0.40793972  0.50057613    -0.75800
O1801       O  0.66742794  0.34791391  0.47143718    -1.11900
O1802       O  0.59096712  0.33623641  0.49347297    -0.71100
C1803       C  0.59026933  0.30712307  0.50813306     0.99600
C1804       C  0.70089886  0.30726580  0.43433487     0.96000
Al1805     Al  0.72676029  0.37699742  0.47099143     1.55600
O1806       O  0.58758429  0.28154096  0.45162007    -0.75700
C1807       C  0.70555203  0.42863812  0.50591462     1.00200
C1808       C  0.70678408  0.30970094  0.50646596     0.95100
O1809       O  0.68001968  0.28220395  0.49085324    -0.81100
C1810       C  0.62667128  0.07698803  0.25076807    -0.01200
C1811       C  0.93032564  0.38014686  0.24958173    -0.01200
C1812       C  0.93433223  0.08440554  0.24444005    -0.01200
O1813       O  0.01267069  0.06684609  0.07554311    -0.80500
C1814       C  0.95507141  0.42393268  0.14288102     0.98800
O1815       O  0.92827844  0.43065718  0.13030033    -0.69600
O1816       O  0.94135033  0.00616418  0.13455780    -0.73200
Al1817     Al  0.94046609  0.47705306  0.10639951     1.49000
C1818       C  0.96361286  0.04605000  0.14047482     0.94100
O1819       O  0.55874565  0.06122895  0.13610870    -0.79400
O1820       O  0.56200041  0.99729921  0.07797095    -0.73000
Al1821     Al  0.53471994  0.06199163  0.10608301     1.90100
O1822       O  0.57227905  0.00630656  0.13126833    -0.72100
O1823       O  0.98601696  0.42666687  0.08173947    -0.71900
O1824       O  0.99266562  0.43456325  0.13416471    -0.77600
O1825       O  0.93339148  0.44390969  0.07909055    -0.75800
O1826       O  0.00140321  0.00263816  0.10615915    -1.11900
O1827       O  0.94167022  0.02019738  0.08302522    -0.71100
C1828       C  0.97266450  0.04921267  0.06928507     0.99600
C1829       C  0.57328826  0.03731220  0.14453980     0.96000
Al1830     Al  0.52502640  0.46747049  0.10688318     1.55600
O1831       O  0.99407860  0.07329432  0.12595491    -0.75700
C1832       C  0.95382808  0.42601612  0.07028412     1.00200
C1833       C  0.58328696  0.03761113  0.07225052     0.95100
O1834       O  0.58354540  0.06609786  0.08694474    -0.81100
N1835       N  0.64076403  0.17811650  0.29268325    -0.35300
N1836       N  0.53938496  0.09912870  0.26140836    -0.55900
N1837       N  0.51755644  0.17923127  0.28940670    -0.35300
N1838       N  0.61788107  0.25710444  0.32142372    -0.55900
C1839       C  0.64563042  0.14384811  0.28359918     0.28300
C1840       C  0.67985087  0.21044992  0.30221989     0.28300
C1841       C  0.47980321  0.14722636  0.27842835     0.28300
C1842       C  0.50845734  0.20753950  0.30217346     0.28300
C1843       C  0.58362496  0.12206901  0.25616395     0.36900
C1844       C  0.52170528  0.12402391  0.25272324     0.36900
C1845       C  0.65276731  0.26354840  0.30651957     0.36900
C1846       C  0.58745579  0.26054526  0.30708133     0.36900
C1847       C  0.68769209  0.15221236  0.29029261    -0.20600
C1848       C  0.70955578  0.19433774  0.30085865    -0.20600
C1849       C  0.94510671  0.15259977  0.28643495    -0.20600
C1850       C  0.46235904  0.18970539  0.30112386    -0.20600
C1851       C  0.59464611  0.16404281  0.24715096    -0.21700
C1852       C  0.55609314  0.16496472  0.24464601    -0.21700
C1853       C  0.64297734  0.26859335  0.28214913    -0.21700
C1854       C  0.60238572  0.26734761  0.28251947    -0.21700
C1855       C  0.61586296  0.11158957  0.26547503    -0.17000
C1856       C  0.68563746  0.25156856  0.31315577    -0.17000
C1857       C  0.54240624  0.24702536  0.31465408    -0.17000
C1858       C  0.47871666  0.11748458  0.25953725    -0.17000
H1859       H  0.70298397  0.13229318  0.28628903     0.15900
H1860       H  0.74313434  0.20950876  0.30723760     0.15900
H1861       H  0.91114215  0.13388127  0.28169298     0.15900
H1862       H  0.94077887  0.19920483  0.31037409     0.15900
H1863       H  0.62770161  0.19211029  0.24387236     0.14200
H1864       H  0.55393746  0.19416914  0.23985926     0.14200
H1865       H  0.66202924  0.27035703  0.26565681     0.14200
H1866       H  0.58428023  0.26822422  0.26639094     0.14200
H1867       H  0.61132304  0.17927659  0.29285323     0.27400
H1868       H  0.54844976  0.18112967  0.28900208     0.27400
N1869       N  0.83607415  0.49812256  0.28980256    -0.35300
N1870       N  0.75402787  0.39481559  0.32054418    -0.55900
N1871       N  0.82994630  0.37262472  0.28851588    -0.35300
N1872       N  0.89424537  0.46575879  0.27197349    -0.55900
C1873       C  0.80020473  0.50165520  0.29729844     0.28300
C1874       C  0.86367366  0.53436700  0.27546481     0.28300
C1875       C  0.79905495  0.33403096  0.30015075     0.28300
C1876       C  0.86500334  0.36776259  0.28085996     0.28300
C1877       C  0.75057944  0.42483742  0.30581108     0.36900
C1878       C  0.74507432  0.35876180  0.30630558     0.36900
C1879       C  0.91921001  0.50955165  0.26477952     0.36900
C1880       C  0.91686575  0.44479239  0.26430776     0.36900
C1881       C  0.80316163  0.04041631  0.28782859    -0.20600
C1882       C  0.84241547  0.06092894  0.27466912    -0.20600
C1883       C  0.81508208  0.30462955  0.29938269    -0.20600
C1884       C  0.85647284  0.32620155  0.28840620    -0.20600
C1885       C  0.74195662  0.40883256  0.28161956    -0.21700
C1886       C  0.73846559  0.36740816  0.28194853    -0.21700
C1887       C  0.95758792  0.51521231  0.25367809    -0.21700
C1888       C  0.95599580  0.47619106  0.25303984    -0.21700
C1889       C  0.76409299  0.46989486  0.31236088    -0.17000
C1890       C  0.90461642  0.54186121  0.26241599    -0.17000
C1891       C  0.90228807  0.39766847  0.26531846    -0.17000
C1892       C  0.75873330  0.32724705  0.31251421    -0.17000
H1893       H  0.77925153  0.05177729  0.28911675     0.15900
H1894       H  0.85120587  0.09121348  0.26493794     0.15900
H1895       H  0.80074056  0.27174364  0.30680571     0.15900
H1896       H  0.87733510  0.31201158  0.28623050     0.15900
H1897       H  0.74056559  0.42635379  0.26526414     0.14200
H1898       H  0.73515683  0.34735617  0.26576633     0.14200
H1899       H  0.98089477  0.04156194  0.24268807     0.14200
H1900       H  0.98101571  0.47334198  0.24280423     0.14200
H1901       H  0.84122954  0.47248169  0.29561718     0.27400
H1902       H  0.82646247  0.40035256  0.28552844     0.27400
N1903       N  0.51992555  0.36803768  0.29127544    -0.35300
N1904       N  0.61307160  0.40232954  0.30861255    -0.55900
N1905       N  0.65223096  0.49751646  0.28701879    -0.35300
N1906       N  0.54084416  0.46442055  0.25988535    -0.55900
C1907       C  0.51622097  0.32941397  0.30021704     0.28300
C1908       C  0.48141960  0.35818616  0.27894664     0.28300
C1909       C  0.67244957  0.49948330  0.30908177     0.28300
C1910       C  0.64095063  0.53023051  0.28677618     0.28300
C1911       C  0.59405155  0.35846823  0.31583392     0.36900
C1912       C  0.65691148  0.42275114  0.31577964     0.36900
C1913       C  0.50419049  0.43547445  0.27335025     0.36900
C1914       C  0.56499671  0.50140010  0.27400688     0.36900
C1915       C  0.47534482  0.29524249  0.29302883    -0.20600
C1916       C  0.95337538  0.31254992  0.28027563    -0.20600
C1917       C  0.66443632  0.02973781  0.32405015    -0.20600
C1918       C  0.64694444  0.04987691  0.30940839    -0.20600
C1919       C  0.62649662  0.35240253  0.32661923    -0.21700
C1920       C  0.66387911  0.39121629  0.32715608    -0.21700
C1921       C  0.50634255  0.45265524  0.29689044    -0.21700
C1922       C  0.54450495  0.49402889  0.29731796    -0.21700
C1923       C  0.54746574  0.32416365  0.31558989    -0.17000
C1924       C  0.47347280  0.39064996  0.26641789    -0.17000
C1925       C  0.61116221  0.53291248  0.26947764    -0.17000
C1926       C  0.68856613  0.47004126  0.31674711    -0.17000
H1927       H  0.96209449  0.26099125  0.29590202     0.15900
H1928       H  0.92113691  0.29173103  0.27235557     0.15900
H1929       H  0.66982362  0.03568137  0.34376225     0.15900
H1930       H  0.63583271  0.07223670  0.31602137     0.15900
H1931       H  0.62513751  0.32479763  0.33606089     0.14200
H1932       H  0.69069068  0.39395935  0.33799334     0.14200
H1933       H  0.48362950  0.43620329  0.31234419     0.14200
H1934       H  0.55545946  0.01923664  0.31069318     0.14200
H1935       H  0.54687894  0.39995537  0.29379519     0.27400
H1936       H  0.64582332  0.47435429  0.27290628     0.27400
C1937       C  0.84884179  0.44009537  0.66771615    -0.01200
C1938       C  0.56662375  0.14513559  0.66750934    -0.01200
C1939       C  0.55981231  0.43527507  0.66638704    -0.01200
O1940       O  0.55132359  0.99282130  0.83687546    -0.80500
C1941       C  0.91355613  0.46568920  0.76969935     0.98800
O1942       O  0.91674639  0.43661526  0.78233809    -0.69600
O1943       O  0.99013866  0.43467108  0.77470468    -0.73200
Al1944     Al  0.96230428  0.43881596  0.80369805     1.49000
C1945       C  0.53113707  0.44982896  0.77153102     0.94100
O1946       O  0.56143945  0.05012112  0.77519381    -0.79400
O1947       O  0.99776110  0.05485250  0.83522268    -0.73000
Al1948     Al  0.55458635  0.02019199  0.80571583     1.90100
O1949       O  0.51519576  0.07470364  0.78363825    -0.72100
O1950       O  0.92086804  0.98998748  0.82601788    -0.71900
O1951       O  0.93733116  0.00299544  0.77516530    -0.77600
O1952       O  0.93306640  0.43830387  0.83249966    -0.75800
O1953       O  0.99525771  0.99469694  0.80445264    -1.11900
O1954       O  0.49998165  0.42751865  0.82553697    -0.71100
C1955       C  0.52716693  0.45350308  0.84159648     0.99600
C1956       C  0.54537489  0.07480917  0.76987681     0.96000
Al1957     Al  0.96987828  0.02834409  0.80484679     1.55600
O1958       O  0.55902957  0.97540614  0.78704510    -0.75700
C1959       C  0.91654249  0.46175159  0.83889946     1.00200
C1960       C  0.53828496  0.07115202  0.84031722     0.95100
O1961       O  0.56462465  0.07057022  0.82428664    -0.81100
C1962       C  0.76869496  0.05816721  0.58759130    -0.01200
C1963       C  0.96079847  0.24234427  0.58808137    -0.01200
C1964       C  0.75780952  0.24433697  0.58636663    -0.01200
O1965       O  0.88687309  0.17713290  0.41743021    -0.80500
C1966       C  0.78262207  0.21310190  0.48151569     0.98800
O1967       O  0.81311123  0.24263873  0.46796428    -0.69600
O1968       O  0.88286604  0.23787130  0.47674173    -0.73200
Al1969     Al  0.85574883  0.23750388  0.44698877     1.49000
C1970       C  0.90165796  0.21665364  0.48337586     0.94100
O1971       O  0.82870812  0.11881529  0.47468252    -0.79400
O1972       O  0.76631795  0.11880970  0.41515871    -0.73000
Al1973     Al  0.85648854  0.14881439  0.44606324     1.90100
O1974       O  0.75982414  0.10103332  0.46814715    -0.72100
O1975       O  0.76209941  0.18914108  0.42355261    -0.71900
O1976       O  0.76151636  0.17359114  0.47428828    -0.77600
O1977       O  0.83100299  0.24242034  0.41740881    -0.75800
O1978       O  0.82625315  0.17806643  0.44603334    -1.11900
O1979       O  0.90474929  0.24561623  0.42609675    -0.71100
C1980       C  0.90666198  0.21761138  0.41180428     0.99600
C1981       C  0.78968605  0.10339821  0.48266620     0.96000
Al1982     Al  0.76680120  0.14776449  0.44521750     1.55600
O1983       O  0.90292151  0.18877913  0.46863262    -0.75700
C1984       C  0.79112437  0.22146778  0.41070387     1.00200
C1985       C  0.78971831  0.10201146  0.40878336     0.95100
O1986       O  0.81747572  0.10214463  0.42395739    -0.81100
N1987       N  0.96577681  0.33941605  0.62998460    -0.35300
N1988       N  0.93631787  0.40252216  0.64729173    -0.55900
N1989       N  0.83603889  0.33825356  0.63237511    -0.35300
N1990       N  0.87918779  0.28316640  0.61081846    -0.55900
C1991       C  0.00414576  0.37853977  0.63388951     0.28300
C1992       C  0.97628684  0.31284567  0.61609701     0.28300
C1993       C  0.84862424  0.38266478  0.63304769     0.28300
C1994       C  0.82096897  0.32223070  0.60898967     0.28300
C1995       C  0.97295231  0.41241300  0.66149625     0.36900
C1996       C  0.91289469  0.41906887  0.65974964     0.36900
C1997       C  0.89782799  0.25683307  0.60611250     0.36900
C1998       C  0.83614038  0.26046026  0.60253275     0.36900
C1999       C  0.53776391  0.37710132  0.62121944    -0.20600
C2000       C  0.02235632  0.33492933  0.61349242    -0.20600
C2001       C  0.84786182  0.39642249  0.60907327    -0.20600
C2002       C  0.83156397  0.35916227  0.59398479    -0.20600
C2003       C  0.96871237  0.43102736  0.68328629    -0.21700
C2004       C  0.93589303  0.43979679  0.68069125    -0.21700
C2005       C  0.86565939  0.21789718  0.59550999    -0.21700
C2006       C  0.82958276  0.22131389  0.59215648    -0.21700
C2007       C  0.01119083  0.40845419  0.65371257    -0.17000
C2008       C  0.94503199  0.27112352  0.60477415    -0.17000
C2009       C  0.80494332  0.27671389  0.60064316    -0.17000
C2010       C  0.86958993  0.41237751  0.65361218    -0.17000
H2011       H  0.57060337  0.40344643  0.61868935     0.15900
H2012       H  0.04437274  0.32355936  0.60701797     0.15900
H2013       H  0.86058793  0.43029993  0.60273061     0.15900
H2014       H  0.82830100  0.36032055  0.57408366     0.15900
H2015       H  0.98637658  0.44091140  0.70036476     0.14200
H2016       H  0.93060824  0.45725474  0.69499913     0.14200
H2017       H  0.86763183  0.19088789  0.58711852     0.14200
H2018       H  0.80442880  0.19799480  0.58025517     0.14200
H2019       H  0.93557429  0.32954826  0.63913441     0.27400
H2020       H  0.83632931  0.31939762  0.64748364     0.27400
N2021       N  0.65404398  0.14980174  0.62376669    -0.35300
N2022       N  0.74156138  0.13854888  0.59780672    -0.55900
N2023       N  0.66316476  0.03268096  0.62850858    -0.35300
N2024       N  0.59201668  0.05419506  0.63897596    -0.55900
C2025       C  0.68417967  0.19056158  0.61415437     0.28300
C2026       C  0.61571299  0.14976848  0.62911065     0.28300
C2027       C  0.69831759  0.03006687  0.61853954     0.28300
C2028       C  0.63066055  0.99133148  0.63607754     0.28300
C2029       C  0.74219639  0.17142902  0.61217644     0.36900
C2030       C  0.74578241  0.10966654  0.61309194     0.36900
C2031       C  0.56946001  0.07471513  0.64816669     0.36900
C2032       C  0.57739486  0.01543982  0.65244043     0.36900
C2033       C  0.66391934  0.21656834  0.61423181    -0.20600
C2034       C  0.62003451  0.18938734  0.62073599    -0.20600
C2035       C  0.68898747  0.98689644  0.62025616    -0.20600
C2036       C  0.64677519  0.96248046  0.62983712    -0.20600
C2037       C  0.74460827  0.16192523  0.63699282    -0.21700
C2038       C  0.74572298  0.12275650  0.63758427    -0.21700
C2039       C  0.53830918  0.04652486  0.66484779    -0.21700
C2040       C  0.54728636  0.01396469  0.66941336    -0.21700
C2041       C  0.72765506  0.20164224  0.60427313    -0.17000
C2042       C  0.58324318  0.12163059  0.64724565    -0.17000
C2043       C  0.59101828  0.98180480  0.65109148    -0.17000
C2044       C  0.73622891  0.06577019  0.60611285    -0.17000
H2045       H  0.67816622  0.25170267  0.61074624     0.15900
H2046       H  0.59518677  0.19943576  0.62193044     0.15900
H2047       H  0.70958237  0.97336211  0.61497552     0.15900
H2048       H  0.63264329  0.42828012  0.63334446     0.15900
H2049       H  0.74178167  0.17939277  0.65300616     0.14200
H2050       H  0.74393086  0.10428931  0.65424185     0.14200
H2051       H  0.51961056  0.05325594  0.67777726     0.14200
H2052       H  0.54137391  0.00049047  0.68752505     0.14200
H2053       H  0.66014044  0.12423756  0.62794134     0.27400
H2054       H  0.66233080  0.06187051  0.63029963     0.27400
N2055       N  0.94172981  0.06627195  0.64912605    -0.35300
N2056       N  0.99117039  0.16536502  0.62478639    -0.55900
N2057       N  0.88760728  0.12657882  0.60193138    -0.35300
N2058       N  0.85194442  0.03585038  0.62894832    -0.55900
C2059       C  0.97666393  0.09426486  0.66437292     0.28300
C2060       C  0.91416173  0.02739547  0.66235159     0.28300
C2061       C  0.91031897  0.16708042  0.61230662     0.28300
C2062       C  0.84508388  0.10712916  0.61082107     0.28300
C2063       C  0.01059378  0.16950320  0.64722886     0.36900
C2064       C  0.98525395  0.20124592  0.62160210     0.36900
C2065       C  0.84778532  0.99566740  0.63491756     0.36900
C2066       C  0.81719922  0.02855564  0.61383829     0.36900
C2067       C  0.96702429  0.07508130  0.68749080    -0.20600
C2068       C  0.93324401  0.03338902  0.68546780    -0.20600
C2069       C  0.88566569  0.16947338  0.63216060    -0.20600
C2070       C  0.84410599  0.13142072  0.63104230    -0.20600
C2071       C  0.50965787  0.20405387  0.65988265    -0.21700
C2072       C  0.99659510  0.22570823  0.64329692    -0.22900
C2073       C  0.81092857  0.96281669  0.62268543    -0.21700
C2074       C  0.79125979  0.98288488  0.61025520    -0.21700
C2075       C  0.01735147  0.13598322  0.65857442    -0.17000
C2076       C  0.87160374  0.98851692  0.65467704    -0.17000
C2077       C  0.81067594  0.06399250  0.60403260    -0.17000
C2078       C  0.95349321  0.20041865  0.60479761    -0.17000
H2079       H  0.98201884  0.08627217  0.70501466     0.15900
H2080       H  0.92704681  0.01314015  0.70117363     0.15900
H2081       H  0.89612303  0.19629280  0.64545356     0.15900
H2082       H  0.81773689  0.12146260  0.64460168     0.15900
H2083       H  0.51659822  0.21266935  0.67928306     0.14200
H2084       H  0.98984457  0.25213847  0.64790543     0.14200
H2085       H  0.79648387  0.42810898  0.62306215     0.14200
H2086       H  0.76131113  0.96390664  0.59983176     0.14200
H2087       H  0.93866890  0.07217500  0.63037056     0.27400
H2088       H  0.90156852  0.11263489  0.59021597     0.27400
C2089       C  0.80350790  0.26670358  0.54488141     0.24900
C2090       C  0.76974666  0.23248882  0.56007249    -0.23200
C2091       C  0.74058660  0.19194864  0.54779744     0.19800
C2092       C  0.74119747  0.18867905  0.52192420     0.24800
C2093       C  0.77482455  0.22269215  0.50737949    -0.23200
C2094       C  0.80573254  0.26187760  0.51918151     0.19700
F2095       F  0.83826017  0.29620219  0.50585265    -0.13100
F2096       F  0.83546202  0.30535655  0.55456196    -0.15500
F2097       F  0.70702739  0.15270515  0.51095184    -0.15500
F2098       F  0.70763195  0.15663137  0.56007095    -0.13100
C2099       C  0.93763602  0.19565455  0.54689504     0.24900
C2100       C  0.93519262  0.22794439  0.56230800    -0.23200
C2101       C  0.92261633  0.25653440  0.54984522     0.19800
C2102       C  0.91532474  0.25427525  0.52442004     0.24800
C2103       C  0.91807095  0.22258839  0.50951952    -0.23200
C2104       C  0.93038746  0.19391852  0.52096146     0.19700
F2105       F  0.93701947  0.16507806  0.50696855    -0.13100
F2106       F  0.95039068  0.16763224  0.55646046    -0.15500
F2107       F  0.90760481  0.28560338  0.51423682    -0.15500
F2108       F  0.92039785  0.29020117  0.56131461    -0.13100
C2109       C  0.74475836  0.08832074  0.54980935     0.24900
C2110       C  0.78055910  0.08999361  0.56406462    -0.23200
C2111       C  0.81947129  0.10136163  0.54986053     0.19800
C2112       C  0.81971547  0.10081085  0.52405272     0.24800
C2113       C  0.78309383  0.09472017  0.51014266    -0.23200
C2114       C  0.74556341  0.08899439  0.52341567     0.19700
F2115       F  0.70827812  0.08056464  0.51096088    -0.13100
F2116       F  0.70589525  0.07935180  0.56095114    -0.15500
F2117       F  0.85575767  0.10257701  0.51272775    -0.15500
F2118       F  0.85601991  0.10474691  0.55979822    -0.13100
C2119       C  0.52218981  0.40104343  0.70933050     0.24900
C2120       C  0.55395286  0.43951283  0.69526896    -0.23200
C2121       C  0.58570411  0.47628026  0.70951650     0.19800
C2122       C  0.58307788  0.47564650  0.73553916     0.24800
C2123       C  0.54671460  0.44084356  0.74797261    -0.23200
C2124       C  0.51839906  0.40233722  0.73500014     0.19700
F2125       F  0.98573218  0.36703173  0.74746278    -0.13100
F2126       F  0.99136207  0.36340627  0.69854535    -0.15500
F2127       F  0.61509733  0.51012301  0.74861752    -0.15500
F2128       F  0.61882306  0.51350597  0.69853335    -0.13100
C2129       C  0.54961827  0.14682462  0.71519104     0.24900
C2130       C  0.56533438  0.12989160  0.69566085    -0.23200
C2131       C  0.58916578  0.10873131  0.70416696     0.19800
C2132       C  0.58555938  0.09423992  0.72871434     0.24800
C2133       C  0.55973925  0.10142436  0.74630837    -0.23200
C2134       C  0.54511145  0.13124331  0.73987577     0.19700
F2135       F  0.02533901  0.14437447  0.75710287    -0.13100
F2136       F  0.53243375  0.17334073  0.70992104    -0.15500
F2137       F  0.60811912  0.07332870  0.73513524    -0.15500
F2138       F  0.61764615  0.10279774  0.68937673    -0.13100
C2139       C  0.87168207  0.41210991  0.73500601     0.24900
C2140       C  0.88339209  0.45188230  0.74773936    -0.23200
C2141       C  0.86986408  0.48044497  0.73753719     0.19800
C2142       C  0.85421957  0.47446216  0.71298034     0.24800
C2143       C  0.85548759  0.44164363  0.69723893    -0.23200
C2144       C  0.85604411  0.40609257  0.71045720     0.19700
F2145       F  0.84744436  0.36788313  0.69878327    -0.13100
F2146       F  0.87909222  0.38064208  0.74529329    -0.15500
F2147       F  0.84700800  0.50659374  0.70348792    -0.15500
F2148       F  0.87555522  0.01306626  0.75107576    -0.13100
C2149       C  0.91907143  0.03092559  0.20619221     0.24900
C2150       C  0.94692769  0.07272334  0.21780808    -0.23200
C2151       C  0.97847848  0.10704096  0.20138133     0.19800
C2152       C  0.98452879  0.09884869  0.17654336     0.24800
C2153       C  0.95555039  0.05803816  0.16573758    -0.23200
C2154       C  0.92127536  0.02530686  0.18064486     0.19700
F2155       F  0.88825053  0.98757657  0.17037120    -0.13100
F2156       F  0.88640288  0.99551391  0.21863244    -0.15500
F2157       F  0.01752184  0.13202323  0.16277708    -0.15500
F2158       F  0.00098173  0.15022167  0.20798015    -0.13100
C2159       C  0.97972310  0.40844874  0.20938462     0.24900
C2160       C  0.94209665  0.40309352  0.22299550    -0.23200
C2161       C  0.90839797  0.40538434  0.20877558     0.19800
C2162       C  0.91054489  0.40832561  0.18271187     0.24800
C2163       C  0.94652938  0.41018798  0.16959936    -0.23200
C2164       C  0.98010349  0.40851208  0.18335914     0.19700
F2165       F  0.51278319  0.40482316  0.17153778    -0.13100
F2166       F  0.01468654  0.40901908  0.22082515    -0.15500
F2167       F  0.87609920  0.40731057  0.17028235    -0.15500
F2168       F  0.87128306  0.40175354  0.21977055    -0.13100
C2169       C  0.58959477  0.01426255  0.18645533     0.24900
C2170       C  0.58835109  0.04597890  0.17092854    -0.23200
C2171       C  0.59680629  0.08616403  0.18165126     0.19800
C2172       C  0.60620750  0.09467211  0.20674864     0.24800
C2173       C  0.60398840  0.06220932  0.22400365    -0.23200
C2174       C  0.59696949  0.02180001  0.21231629     0.19700
F2175       F  0.60326447  0.99146274  0.22475287    -0.13100
F2176       F  0.58628234  0.97685138  0.17647218    -0.15500
F2177       F  0.62528962  0.13810747  0.21211197    -0.15500
F2178       F  0.60003877  0.12002940  0.16729748    -0.13100
C2179       C  0.70213143  0.49270191  0.56257353     0.24900
C2180       C  0.74684437  0.51381165  0.57158798    -0.23200
C2181       C  0.77628163  0.50288495  0.55820760     0.19800
C2182       C  0.76275115  0.47509195  0.53750604     0.24800
C2183       C  0.71942312  0.45669909  0.52859650    -0.23200
C2184       C  0.68893585  0.46466314  0.54187379     0.19700
F2185       F  0.64632386  0.44768240  0.53393551    -0.13100
F2186       F  0.67121991  0.50228912  0.57147091    -0.15500
F2187       F  0.79329100  0.46777054  0.52560967    -0.15500
F2188       F  0.82059986  0.02209141  0.56283422    -0.13100
C2189       C  0.68489314  0.24952534  0.53788828     0.24900
C2190       C  0.71119299  0.29446227  0.53144807    -0.23200
C2191       C  0.73570416  0.32454106  0.55068328     0.19800
C2192       C  0.74128295  0.30824514  0.57360000     0.24800
C2193       C  0.72766086  0.26298864  0.57606865    -0.23200
C2194       C  0.69018305  0.23466343  0.56085411     0.19700
F2195       F  0.66259645  0.19090996  0.56588614    -0.13100
F2196       F  0.65459066  0.21928582  0.52194861    -0.15500
F2197       F  0.74738268  0.33284089  0.59438108    -0.15500
F2198       F  0.75111825  0.36884916  0.54811461    -0.13100
C2199       C  0.51946133  0.30894352  0.56140659     0.24900
C2200       C  0.50834132  0.26912274  0.57530807    -0.23200
C2201       C  0.53360604  0.24828187  0.56865834     0.19800
C2202       C  0.56167387  0.26193634  0.54765635     0.24800
C2203       C  0.56593292  0.29673414  0.53229835    -0.23200
C2204       C  0.54718632  0.32193549  0.54050256     0.19700
F2205       F  0.55361853  0.35839958  0.52756150    -0.13100
F2206       F  0.50027219  0.33395496  0.56620273    -0.15500
F2207       F  0.58232780  0.23859786  0.54157256    -0.15500
F2208       F  0.52789069  0.21095017  0.57993801    -0.13100
C2209       C  0.80769467  0.04839678  0.35104411     0.24900
C2210       C  0.76838270  0.03758446  0.33744326    -0.23200
C2211       C  0.75389430  0.06820000  0.34139642     0.19800
C2212       C  0.75869961  0.08779099  0.36495665     0.24800
C2213       C  0.78558259  0.08346796  0.38314003    -0.23200
C2214       C  0.81395153  0.06784882  0.37471679     0.19700
F2215       F  0.84723038  0.07073272  0.38920324    -0.13100
F2216       F  0.83635959  0.03476789  0.34342520    -0.15500
F2217       F  0.74054040  0.11400879  0.36896233    -0.15500
F2218       F  0.74821877  0.08872737  0.32138452    -0.13100
C2219       C  0.69023915  0.46188309  0.37216878     0.24900
C2220       C  0.72600589  0.46442467  0.35733603    -0.23200
C2221       C  0.75633745  0.45504470  0.36986520     0.19800
C2222       C  0.75404820  0.44896329  0.39565887     0.24800
C2223       C  0.71793682  0.44529118  0.40973807    -0.23200
C2224       C  0.68619579  0.45200811  0.39764999     0.19700
F2225       F  0.65038503  0.44829417  0.41035568    -0.13100
F2226       F  0.65697518  0.46639213  0.36227749    -0.15500
F2227       F  0.78837584  0.44795290  0.40700790    -0.15500
F2228       F  0.79041352  0.45441280  0.35769921    -0.13100
C2229       C  0.72417943  0.21919941  0.35526245     0.24900
C2230       C  0.75066459  0.26235595  0.34395242    -0.23200
C2231       C  0.79389074  0.28910942  0.35466873     0.19800
C2232       C  0.80748092  0.27516067  0.37552459     0.24800
C2233       C  0.77862129  0.23460147  0.38731208    -0.23200
C2234       C  0.73786007  0.20618911  0.37629491     0.19700
F2235       F  0.70916617  0.16605301  0.38673130    -0.13100
F2236       F  0.68191691  0.19004517  0.34848683    -0.15500
F2237       F  0.84802673  0.30360253  0.38528650    -0.15500
F2238       F  0.82233337  0.33140803  0.34718676    -0.13100
C2239       C  0.74444349  0.33703199  0.36816529     0.24900
C2240       C  0.71186574  0.30003777  0.35406347    -0.23200
C2241       C  0.67524076  0.26689044  0.36824772     0.19800
C2242       C  0.67520503  0.26718669  0.39417523     0.24800
C2243       C  0.70857360  0.30272808  0.40756282    -0.23200
C2244       C  0.74314697  0.33748252  0.39426752     0.19700
F2245       F  0.77765342  0.37077465  0.40661487    -0.13100
F2246       F  0.78168023  0.37040088  0.35748444    -0.15500
F2247       F  0.64365030  0.23034781  0.40632768    -0.15500
F2248       F  0.64240355  0.22941146  0.35785688    -0.13100
C2249       C  0.94290086  0.20160980  0.37671975     0.24900
C2250       C  0.93135999  0.23077166  0.38797092    -0.23200
C2251       C  0.94074729  0.26983912  0.37532021     0.19800
C2252       C  0.96552046  0.28179611  0.35300931     0.24800
C2253       C  0.98396488  0.25586687  0.34327848    -0.23200
C2254       C  0.96811295  0.21337313  0.35509902     0.19700
F2255       F  0.98242944  0.18484210  0.34860877    -0.13100
F2256       F  0.93363982  0.16266207  0.38789563    -0.15500
F2257       F  0.97599115  0.32200355  0.34343944    -0.15500
F2258       F  0.92766331  0.29771845  0.38503516    -0.13100
C2259       C  0.56820948  0.26276952  0.39794434     0.24900
C2260       C  0.57146656  0.29950063  0.41077913    -0.23200
C2261       C  0.56700558  0.33157202  0.39721649     0.19800
C2262       C  0.56011041  0.32771491  0.37166365     0.24800
C2263       C  0.55631629  0.29065614  0.35799628    -0.23200
C2264       C  0.56262098  0.25919275  0.37192816     0.19700
F2265       F  0.56100290  0.22329903  0.36090185    -0.13100
F2266       F  0.56991195  0.22983664  0.41061266    -0.15500
F2267       F  0.55504133  0.36015056  0.36076141    -0.15500
F2268       F  0.56841208  0.36707986  0.40884631    -0.13100
C2269       C  0.92737055  0.15046059  0.22626444     0.24900
C2270       C  0.90707220  0.10487043  0.23358281    -0.23200
C2271       C  0.86625575  0.07469299  0.22139698     0.19800
C2272       C  0.85223445  0.08709234  0.20064987     0.24800
C2273       C  0.87634769  0.13042223  0.19164421    -0.23200
C2274       C  0.91236436  0.16266564  0.20520347     0.19700
F2275       F  0.93436204  0.20567759  0.19743669    -0.13100
F2276       F  0.96510256  0.18275763  0.23687424    -0.15500
F2277       F  0.81687528  0.05495714  0.18800057    -0.15500
F2278       F  0.84202146  0.03084334  0.22724194    -0.13100
C2279       C  0.91458689  0.29177521  0.20347544     0.24900
C2280       C  0.87269800  0.27946491  0.19356149    -0.23200
C2281       C  0.84393922  0.28836885  0.20768680     0.19800
C2282       C  0.85833091  0.31308917  0.22985501     0.24800
C2283       C  0.90326267  0.33107147  0.23867673    -0.23200
C2284       C  0.92860174  0.31466610  0.22586331     0.19700
F2285       F  0.97153596  0.32835923  0.23158878    -0.13100
F2286       F  0.94496412  0.28616891  0.19015593    -0.15500
F2287       F  0.82919232  0.32398736  0.23999550    -0.15500
F2288       F  0.80257395  0.27599248  0.19921346    -0.13100
C2289       C  0.69789675  0.14506379  0.23257038     0.24900
C2290       C  0.67698472  0.10035916  0.24185316    -0.23200
C2291       C  0.69314236  0.07377322  0.23064138     0.19800
C2292       C  0.71374735  0.08465990  0.20698275     0.24800
C2293       C  0.72273740  0.12440211  0.19509820    -0.23200
C2294       C  0.71851546  0.15596521  0.20929857     0.19700
F2295       F  0.73038427  0.19678044  0.19988056    -0.13100
F2296       F  0.69170980  0.17729284  0.24268451    -0.15500
F2297       F  0.72362432  0.05564195  0.19556913    -0.15500
F2298       F  0.68392899  0.03426865  0.24054427    -0.13100
C2299       C  0.96849765  0.11036313  0.05022149     0.24900
C2300       C  0.96284127  0.06811740  0.04756179    -0.23200
C2301       C  0.95228734  0.04787507  0.02393122     0.19800
C2302       C  0.93979180  0.06702002  0.00459531     0.24800
C2303       C  0.93179797  0.10216262  0.01016774    -0.23200
C2304       C  0.95380014  0.12767514  0.03184695     0.19700
F2305       F  0.95105925  0.16369197  0.03880457    -0.13100
F2306       F  0.98354224  0.13289485  0.07200780    -0.15500
F2307       F  0.93615899  0.05172914  0.98098264    -0.15500
F2308       F  0.95380331  0.01003796  0.01972010    -0.13100
C2309       C  0.85230448  0.08505503  0.06609553     0.24900
C2310       C  0.85712564  0.12622791  0.07248650    -0.23200
C2311       C  0.85711505  0.15366360  0.05342177     0.19800
C2312       C  0.86179240  0.14452582  0.02881401     0.24800
C2313       C  0.86797510  0.10930187  0.02216928    -0.23200
C2314       C  0.85579983  0.07579678  0.04102414     0.19700
F2315       F  0.85403616  0.03687735  0.03623978    -0.13100
F2316       F  0.84750895  0.05524652  0.08399140    -0.15500
F2317       F  0.85826195  0.16906973  0.01144339    -0.15500
F2318       F  0.85220872  0.18928596  0.05852044    -0.13100
C2319       C  0.89556741  0.39039324  0.03804964     0.24900
C2320       C  0.94010321  0.40706546  0.04540436    -0.23200
C2321       C  0.97171961  0.41587734  0.02647980     0.19800
C2322       C  0.95687275  0.39732452  0.00284957     0.24800
C2323       C  0.91248478  0.36385903  0.00015032    -0.23200
C2324       C  0.88256489  0.37233879  0.01435531     0.19700
F2325       F  0.83909428  0.35497171  0.00829657    -0.13100
F2326       F  0.86438668  0.38977899  0.05386618    -0.15500
F2327       F  0.98121006  0.41965890  0.98241805    -0.15500
F2328       F  0.01550663  0.44530027  0.03008143    -0.13100
C2329       C  0.83510362  0.27449820  0.05714717     0.24900
C2330       C  0.86842583  0.27779498  0.07310367    -0.23200
C2331       C  0.91113339  0.29338754  0.06325690     0.19800
C2332       C  0.91966834  0.30408824  0.03803498     0.24800
C2333       C  0.88503344  0.29434000  0.02065472    -0.23200
C2334       C  0.84186379  0.27905136  0.03137359     0.19700
F2335       F  0.80676907  0.27364636  0.01776921    -0.13100
F2336       F  0.79634939  0.26923046  0.06665033    -0.15500
F2337       F  0.96292777  0.32866209  0.03152883    -0.15500
F2338       F  0.94553617  0.30044280  0.07817920    -0.13100
C2339       C  0.63737805  0.03480701  0.01100442     0.24900
C2340       C  0.65532421  0.07919220  0.00164743    -0.23200
C2341       C  0.63912397  0.10510608  0.01422561     0.19800
C2342       C  0.61522924  0.09107777  0.03660970     0.24800
C2343       C  0.60592145  0.05085733  0.04763990    -0.23200
C2344       C  0.61481742  0.02179230  0.03388792     0.19700
F2345       F  0.60474241  0.98145612  0.04338968    -0.13100
F2346       F  0.64723940  0.00523219  0.00078085    -0.15500
F2347       F  0.60340104  0.11859002  0.04815467    -0.15500
F2348       F  0.65198921  0.14755717  0.00763617    -0.13100
C2349       C  0.73612233  0.08942456  0.05641942     0.24900
C2350       C  0.73648732  0.12527714  0.06909975    -0.23200
C2351       C  0.73466893  0.15793615  0.05479024     0.19800
C2352       C  0.73334758  0.15564441  0.02870330     0.24800
C2353       C  0.72838015  0.11735954  0.01560343    -0.23200
C2354       C  0.73178445  0.08525684  0.03047927     0.19700
F2355       F  0.72652806  0.04701086  0.02057846    -0.13100
F2356       F  0.73803605  0.05665486  0.06923649    -0.15500
F2357       F  0.73268112  0.18972592  0.01676702    -0.15500
F2358       F  0.73263430  0.19180436  0.06608904    -0.13100
C2359       C  0.75722694  0.42688836  0.70380886     0.24900
C2360       C  0.75102898  0.38780018  0.71536481    -0.23200
C2361       C  0.75424409  0.35656337  0.69988491     0.19800
C2362       C  0.77349683  0.36917755  0.67600651     0.24800
C2363       C  0.79596250  0.41473262  0.66884725    -0.23200
C2364       C  0.77573428  0.43821645  0.67958883     0.19700
F2365       F  0.78388980  0.47803650  0.67043927    -0.13100
F2366       F  0.75199949  0.45737818  0.71696154    -0.15500
F2367       F  0.77421963  0.33769014  0.66156503    -0.15500
F2368       F  0.74201785  0.31500673  0.70820183    -0.13100
C2369       C  0.65627043  0.22159585  0.70601941     0.24900
C2370       C  0.63515143  0.24542409  0.71319869    -0.23200
C2371       C  0.61494517  0.25711027  0.69433377     0.19800
C2372       C  0.60147883  0.23217198  0.67252544     0.24800
C2373       C  0.60662259  0.19471515  0.67076047    -0.23200
C2374       C  0.64628572  0.20117674  0.68256494     0.19700
F2375       F  0.66743497  0.17921897  0.67501171    -0.13100
F2376       F  0.68291990  0.21517478  0.72185460    -0.15500
F2377       F  0.59577765  0.25110773  0.65182120    -0.15500
F2378       F  0.61104072  0.29380481  0.69647666    -0.13100
C2379       C  0.57055889  0.34645974  0.69865373     0.24900
C2380       C  0.60760117  0.37535741  0.71265506    -0.23200
C2381       C  0.63814749  0.41672637  0.70240088     0.19800
C2382       C  0.62814238  0.43237887  0.68136506     0.24800
C2383       C  0.58487110  0.40814854  0.67029825    -0.23200
C2384       C  0.56072236  0.36161650  0.67673176     0.19700
F2385       F  0.52169028  0.33234351  0.66619965    -0.13100
F2386       F  0.54180237  0.30462336  0.70704354    -0.15500
F2387       F  0.65622226  0.47645076  0.67754770    -0.15500
F2388       F  0.67489651  0.44639751  0.71498792    -0.13100
C2389       C  0.61460740  0.14496034  0.88988810     0.24900
C2390       C  0.58277555  0.14687587  0.90606580    -0.23200
C2391       C  0.54151925  0.10711661  0.90702214     0.19800
C2392       C  0.52691838  0.08019676  0.88576129     0.24800
C2393       C  0.55510037  0.09154513  0.86469633    -0.23200
C2394       C  0.60067563  0.11998244  0.86827467     0.19700
F2395       F  0.63158012  0.12427566  0.85103975    -0.13100
F2396       F  0.65870542  0.16719678  0.89458482    -0.15500
F2397       F  0.48714970  0.04205563  0.88633300    -0.15500
F2398       F  0.51945492  0.09044520  0.92887530    -0.13100
C2399       C  0.63965726  0.25549536  0.85462069     0.24900
C2400       C  0.60889282  0.23206930  0.83595640    -0.23200
C2401       C  0.56555599  0.19976822  0.84359368     0.19800
C2402       C  0.55641603  0.18927552  0.86931165     0.24800
C2403       C  0.58994298  0.21319803  0.88765109    -0.23200
C2404       C  0.62515731  0.25178344  0.87899778     0.19700
F2405       F  0.64181755  0.28724535  0.89364496    -0.13100
F2406       F  0.68337000  0.28362438  0.84937643    -0.15500
F2407       F  0.51524927  0.15651277  0.87583884    -0.15500
F2408       F  0.53327855  0.17714250  0.82654360    -0.13100
C2409       C  0.86864232  0.47243041  0.90044854     0.24900
C2410       C  0.83914094  0.42675489  0.90609047    -0.23200
C2411       C  0.84823562  0.39601351  0.89323258     0.19800
C2412       C  0.87372103  0.40800083  0.87183809     0.24800
C2413       C  0.89248182  0.45124868  0.86263250    -0.23200
C2414       C  0.89186133  0.48411587  0.87761305     0.19700
F2415       F  0.91153216  0.02414988  0.86963159    -0.13100
F2416       F  0.86889176  0.50560541  0.91383103    -0.15500
F2417       F  0.87744812  0.37583777  0.85934657    -0.15500
F2418       F  0.83254648  0.35344450  0.90061993    -0.13100
C2419       C  0.70907003  0.36944700  0.86066173     0.24900
C2420       C  0.74008446  0.39226367  0.84140523    -0.23200
C2421       C  0.77708789  0.43279290  0.84779031     0.19800
C2422       C  0.78646978  0.44281943  0.87304825     0.24800
C2423       C  0.76639580  0.40821676  0.89140212    -0.23200
C2424       C  0.72277200  0.37647239  0.88562967     0.19700
F2425       F  0.69289161  0.35793073  0.90432351    -0.13100
F2426       F  0.66534673  0.34418791  0.85531037    -0.15500
F2427       F  0.80966054  0.48633582  0.87957026    -0.15500
F2428       F  0.80067911  0.46402564  0.83009188    -0.13100
C2429       C  0.51911501  0.37413016  0.89250702     0.24900
C2430       C  0.55557257  0.40381308  0.90750506    -0.23200
C2431       C  0.56088795  0.44650154  0.90816265     0.19800
C2432       C  0.55234824  0.46399836  0.88652969     0.24800
C2433       C  0.53138084  0.43578968  0.86601491    -0.23200
C2434       C  0.51024622  0.38971019  0.87050280     0.19700
F2435       F  0.48190401  0.35978427  0.85375026    -0.13100
F2436       F  0.49419084  0.33028586  0.89799196    -0.15500
F2437       F  0.56255720  0.50723489  0.88613183    -0.15500
F2438       F  0.56552767  0.46702406  0.93038686    -0.13100
C2439       C  0.63420898  0.41518061  0.87244403     0.24900
C2440       C  0.60480169  0.38009568  0.88877320    -0.23200
C2441       C  0.57586553  0.33856529  0.87698109     0.19800
C2442       C  0.57414109  0.33364396  0.85127022     0.24800
C2443       C  0.60272701  0.36863960  0.83550792    -0.23200
C2444       C  0.63330128  0.40946651  0.84643668     0.19700
F2445       F  0.66307272  0.44401960  0.83207612    -0.13100
F2446       F  0.66352055  0.45603095  0.88126540    -0.15500
F2447       F  0.54293272  0.29378552  0.84183257    -0.15500
F2448       F  0.54366497  0.30303185  0.88930069    -0.13100
C2449       C  0.59214077  0.89030627  0.91576767    -0.01200
C2450       C  0.79029156  0.90782252  0.91711994    -0.01200
C2451       C  0.59100432  0.69406264  0.91456523    -0.01200
O2452       O  0.65409660  0.88620812  0.74573079    -0.80500
C2453       C  0.62013849  0.74926976  0.81048814     0.98800
O2454       O  0.59182456  0.74663320  0.79487959    -0.69600
O2455       O  0.58681313  0.81714684  0.80315892    -0.73200
Al2456     Al  0.59634201  0.79426576  0.77376030     1.49000
C2457       C  0.60530544  0.85723173  0.80988862     0.94100
O2458       O  0.70563570  0.89762616  0.80649798    -0.79400
O2459       O  0.72453128  0.83802962  0.75032357    -0.73000
Al2460     Al  0.67845728  0.88910330  0.77582272     1.90100
O2461       O  0.72996499  0.85023810  0.80355363    -0.72100
O2462       O  0.65945732  0.76116539  0.75471604    -0.71900
O2463       O  0.66095242  0.77306475  0.80577635    -0.77600
O2464       O  0.60344852  0.77038300  0.74430936    -0.75800
O2465       O  0.65550731  0.83017696  0.77631302    -1.11900
O2466       O  0.58609856  0.83256896  0.75186386    -0.71100
C2467       C  0.61518498  0.86326178  0.73825099     0.99600
C2468       C  0.72552701  0.87939822  0.81567272     0.96000
Al2469     Al  0.69137648  0.80745586  0.77853608     1.55600
O2470       O  0.63048707  0.88783159  0.79483427    -0.75700
C2471       C  0.63228462  0.75988443  0.73864375     1.00200
C2472       C  0.73529518  0.87585508  0.74213552     0.95100
O2473       O  0.73055436  0.90269260  0.75606137    -0.81100
N2474       N  0.81885328  0.51128888  0.95292790    -0.35300
N2475       N  0.70870203  0.93143269  0.92455387    -0.55900
N2476       N  0.67467087  0.49633389  0.95603531    -0.35300
N2477       N  0.78389173  0.57393427  0.98511785    -0.55900
C2478       C  0.81214605  0.96942873  0.95161883     0.28300
C2479       C  0.84300260  0.53073674  0.97366291     0.28300
C2480       C  0.65148572  0.97435357  0.93541641     0.28300
C2481       C  0.68273684  0.53894966  0.95680221     0.28300
C2482       C  0.73607721  0.92613005  0.94037463     0.36900
C2483       C  0.66882677  0.91571591  0.93654970     0.36900
C2484       C  0.82409611  0.58861830  0.97361446     0.36900
C2485       C  0.75806579  0.58150212  0.96921397     0.36900
C2486       C  0.82724609  0.96009893  0.97316099    -0.20600
C2487       C  0.84769253  0.49837975  0.98639059    -0.20600
C2488       C  0.65151899  0.00736787  0.92050346    -0.20600
C2489       C  0.66846930  0.54776815  0.93470035    -0.20600
C2490       C  0.71520176  0.91074450  0.96318807    -0.21700
C2491       C  0.67285216  0.90430037  0.96078826    -0.21700
C2492       C  0.82321867  0.60429815  0.94999686    -0.21700
C2493       C  0.78122341  0.59909063  0.94703727    -0.21700
C2494       C  0.78092259  0.93809074  0.93504077    -0.17000
C2495       C  0.85489541  0.57501884  0.98113044    -0.17000
C2496       C  0.71322969  0.57116854  0.97394685    -0.17000
C2497       C  0.63709420  0.92801231  0.92946615    -0.17000
H2498       H  0.81955881  0.92780464  0.98011082     0.15900
H2499       H  0.86118729  0.49969396  0.00440954     0.15900
H2500       H  0.64196098  0.00465057  0.90120936     0.15900
H2501       H  0.67445905  0.57989374  0.92826273     0.15900
H2502       H  0.72942859  0.90572570  0.97990658     0.14200
H2503       H  0.64954934  0.89674955  0.97598826     0.14200
H2504       H  0.84902139  0.61520269  0.93580702     0.14200
H2505       H  0.76905057  0.60747453  0.93057811     0.14200
H2506       H  0.80742026  0.52547530  0.93987774     0.27400
H2507       H  0.68500634  0.48255766  0.96989825     0.27400
C2508       C  0.70164766  0.60304535  0.99048169    -0.01200
C2509       C  0.89678808  0.81178316  0.99380185    -0.01200
C2510       C  0.89344687  0.60830536  0.99887317    -0.01200
O2511       O  0.88391576  0.66640687  0.15408505    -0.80500
C2512       C  0.74263951  0.62828906  0.09719630     0.98800
O2513       O  0.75986096  0.60719021  0.10622617    -0.69600
O2514       O  0.83270586  0.60981576  0.11647901    -0.73200
Al2515     Al  0.78855448  0.61461811  0.13610194     1.49000
C2516       C  0.85465027  0.63704867  0.09922592     0.94100
O2517       O  0.87981234  0.75307717  0.11257690    -0.79400
O2518       O  0.82239038  0.74871504  0.15662000    -0.73000
Al2519     Al  0.87472852  0.70579788  0.13318909     1.90100
O2520       O  0.81082464  0.73252094  0.10443422    -0.72100
O2521       O  0.75311803  0.67294347  0.16259449    -0.71900
O2522       O  0.74014323  0.65804322  0.11004364    -0.77600
O2523       O  0.73857331  0.60534389  0.15583081    -0.75800
O2524       O  0.81543559  0.67409064  0.13424375    -1.11900
O2525       O  0.81574043  0.61835907  0.16611276    -0.71100
C2526       C  0.85690294  0.63915537  0.16996480     0.99600
C2527       C  0.85117499  0.75321671  0.09834415     0.96000
Al2528     Al  0.78353213  0.70101672  0.13350215     1.55600
O2529       O  0.87540627  0.67820267  0.10347927    -0.75700
C2530       C  0.73721408  0.63361454  0.16993417     1.00200
C2531       C  0.85551004  0.75345816  0.16930600     0.95100
O2532       O  0.87732667  0.73530031  0.16234993    -0.81100
N2533       N  0.99370071  0.82243740  0.95198262    -0.35300
N2534       N  0.91712910  0.72117545  0.98065021    -0.55900
N2535       N  0.99452117  0.68826517  0.95908743    -0.35300
N2536       N  0.57479160  0.78192774  0.92420357    -0.55900
C2537       C  0.97691632  0.83218989  0.97245800     0.28300
C2538       C  0.53851758  0.85012735  0.95139739     0.28300
C2539       C  0.95211567  0.65454605  0.96350010     0.28300
C2540       C  0.51342071  0.67729948  0.93975754     0.28300
C2541       C  0.93792583  0.76224903  0.99141506     0.36900
C2542       C  0.93308014  0.69654973  0.99168744     0.36900
C2543       C  0.58284690  0.81706333  0.93902308     0.36900
C2544       C  0.57935309  0.75147459  0.93791936     0.36900
C2545       C  0.01391574  0.86307514  0.98610034    -0.20600
C2546       C  0.55180898  0.87678594  0.97199060    -0.20600
C2547       C  0.94216797  0.62228214  0.94574157    -0.20600
C2548       C  0.47944215  0.63752216  0.93020357    -0.20600
C2549       C  0.97258886  0.76512840  0.00585701    -0.21700
C2550       C  0.96930620  0.72420872  0.00608053    -0.21700
C2551       C  0.59077113  0.80706222  0.96291585    -0.21700
C2552       C  0.59064041  0.76717535  0.96194331    -0.21700
C2553       C  0.93487650  0.80040734  0.98309598    -0.17000
C2554       C  0.56788854  0.84840794  0.93375027    -0.17000
C2555       C  0.55947529  0.70537614  0.93131475    -0.17000
C2556       C  0.92343228  0.65373940  0.98337794    -0.17000
H2557       H  0.01535157  0.87244779  0.00531121     0.15900
H2558       H  0.58546610  0.90012374  0.97757176     0.15900
H2559       H  0.91060099  0.59241457  0.94275399     0.15900
H2560       H  0.47840042  0.62165410  0.91293841     0.15900
H2561       H  0.99991057  0.79435771  0.01407692     0.14200
H2562       H  0.99432785  0.71749575  0.01345859     0.14200
H2563       H  0.59276534  0.82473612  0.97988860     0.14200
H2564       H  0.59246772  0.74886968  0.97779734     0.14200
H2565       H  0.97563446  0.79568828  0.93999834     0.27400
H2566       H  0.01044998  0.71710275  0.96953837     0.27400
N2567       N  0.80233748  0.81795400  0.95592460    -0.35300
N2568       N  0.77949720  0.72529747  0.96525613    -0.55900
N2569       N  0.68665080  0.69210980  0.95157647    -0.35300
N2570       N  0.70323809  0.79057125  0.93720654    -0.55900
C2571       C  0.84348726  0.82515266  0.96275795     0.28300
C2572       C  0.80651995  0.85737090  0.94793529     0.28300
C2573       C  0.68048848  0.65367259  0.96219408     0.28300
C2574       C  0.64599379  0.68728603  0.94626184     0.28300
C2575       C  0.82299893  0.74713492  0.97304682     0.36900
C2576       C  0.76131193  0.68129108  0.97200249     0.36900
C2577       C  0.73890800  0.82061160  0.92325780     0.36900
C2578       C  0.67907744  0.75479950  0.92208248     0.36900
C2579       C  0.87398382  0.86929107  0.95787232    -0.20600
C2580       C  0.85084118  0.89003924  0.95142008    -0.20600
C2581       C  0.63492301  0.62329762  0.96170100    -0.20600
C2582       C  0.61365979  0.64600710  0.95473925    -0.20600
C2583       C  0.83112999  0.71705388  0.98390748    -0.21700
C2584       C  0.79465878  0.67682528  0.98263247    -0.21700
C2585       C  0.73922224  0.80214857  0.90048067    -0.21700
C2586       C  0.70320629  0.76012947  0.90030196    -0.21700
C2587       C  0.85383361  0.79423508  0.97511191    -0.17000
C2588       C  0.77505897  0.86167189  0.93186555    -0.17000
C2589       C  0.63872624  0.71507296  0.92919409    -0.17000
C2590       C  0.71441871  0.64695245  0.97377711    -0.17000
H2591       H  0.90987053  0.88566058  0.95837892     0.15900
H2592       H  0.86729056  0.92524883  0.94764896     0.15900
H2593       H  0.61746377  0.58829664  0.96618449     0.15900
H2594       H  0.57814361  0.63246008  0.95460901     0.15900
H2595       H  0.85674361  0.72446412  0.99643159     0.14200
H2596       H  0.79271149  0.64953793  0.99244469     0.14200
H2597       H  0.76237868  0.81714593  0.88512028     0.14200
H2598       H  0.69496895  0.73775904  0.88479574     0.14200
H2599       H  0.77231709  0.78817728  0.95683186     0.27400
H2600       H  0.71682312  0.71936816  0.94628756     0.27400
C2601       C  0.53326424  0.77981359  0.33116028    -0.01200
C2602       C  0.72769831  0.78545645  0.33089521    -0.01200
C2603       C  0.73569523  0.98690069  0.33049993    -0.01200
O2604       O  0.60586530  0.78689562  0.50157375    -0.80500
C2605       C  0.70746515  0.92564210  0.43522790     0.98800
O2606       O  0.67792206  0.92565379  0.44943306    -0.69600
O2607       O  0.60655452  0.85188082  0.44230366    -0.73200
Al2608     Al  0.63582110  0.87870360  0.47149582     1.49000
C2609       C  0.58667800  0.81165985  0.43618953     0.94100
O2610       O  0.65880933  0.78624170  0.44212452    -0.79400
O2611       O  0.72477565  0.85082632  0.50176316    -0.73000
Al2612     Al  0.63379851  0.78896070  0.47172005     1.90100
O2613       O  0.72860948  0.83388295  0.44992785    -0.72100
O2614       O  0.73135052  0.92584667  0.49188196    -0.71900
O2615       O  0.72753154  0.90561311  0.44162748    -0.77600
O2616       O  0.66290870  0.90864936  0.50079604    -0.75800
O2617       O  0.66445321  0.84834020  0.47150744    -1.11900
O2618       O  0.58814537  0.83784357  0.49328735    -0.71100
C2619       C  0.58655743  0.80791492  0.50758288     0.99600
C2620       C  0.69870328  0.80672878  0.43524042     0.96000
Al2621     Al  0.72382899  0.87690645  0.47135518     1.55600
O2622       O  0.58533056  0.78263220  0.45105382    -0.75700
C2623       C  0.70354643  0.92886963  0.50607215     1.00200
C2624       C  0.70221835  0.81041497  0.50744601     0.95100
O2625       O  0.67573681  0.78271522  0.49176768    -0.81100
C2626       C  0.62576705  0.57572547  0.25204590    -0.01200
C2627       C  0.93069660  0.88106801  0.24898687    -0.01200
C2628       C  0.93464437  0.58433475  0.24425367    -0.01200
O2629       O  0.01302845  0.56568499  0.07557141    -0.80500
C2630       C  0.95824718  0.92504277  0.14240454     0.98800
O2631       O  0.93089728  0.93007419  0.12927737    -0.69600
O2632       O  0.94006123  0.50699436  0.13410039    -0.73200
Al2633     Al  0.94215466  0.97748157  0.10622297     1.49000
C2634       C  0.96282650  0.54672839  0.14006772     0.94100
O2635       O  0.55664814  0.55941224  0.13706948    -0.79400
O2636       O  0.56068140  0.49553329  0.07898215    -0.73000
Al2637     Al  0.53389149  0.56077395  0.10662704     1.90100
O2638       O  0.56854451  0.50327012  0.13276846    -0.72100
O2639       O  0.98786566  0.92738562  0.08198205    -0.71900
O2640       O  0.99658739  0.93743355  0.13421483    -0.77600
O2641       O  0.93630218  0.94599292  0.07838736    -0.75800
O2642       O  0.99969372  0.50128397  0.10654802    -1.11900
O2643       O  0.94161939  0.51935950  0.08241686    -0.71100
C2644       C  0.97320133  0.54804407  0.06884020     0.99600
C2645       C  0.57012104  0.53480638  0.14586664     0.96000
Al2646     Al  0.52775737  0.96948608  0.10629586     1.55600
O2647       O  0.99376284  0.57349965  0.12567674    -0.75700
C2648       C  0.95624319  0.92716352  0.07013436     1.00200
C2649       C  0.58253066  0.53587079  0.07347745     0.95100
O2650       O  0.58315295  0.56422185  0.08836782    -0.81100
N2651       N  0.64113149  0.67795372  0.29365329    -0.35300
N2652       N  0.53923550  0.59871500  0.26197752    -0.55900
N2653       N  0.51877135  0.68046652  0.28844185    -0.35300
N2654       N  0.61887300  0.75775736  0.32147477    -0.55900
C2655       C  0.64553789  0.64322867  0.28481201     0.28300
C2656       C  0.68031368  0.71017930  0.30323237     0.28300
C2657       C  0.48079609  0.64815282  0.27776374     0.28300
C2658       C  0.50980105  0.70883979  0.30124202     0.28300
C2659       C  0.58366677  0.62163716  0.25728672     0.36900
C2660       C  0.52192364  0.62343794  0.25250190     0.36900
C2661       C  0.65403289  0.76402279  0.30688134     0.36900
C2662       C  0.58887760  0.76132969  0.30680910     0.36900
C2663       C  0.68745923  0.65129225  0.29162797    -0.20600
C2664       C  0.70963145  0.69352866  0.30210590    -0.20600
C2665       C  0.94623364  0.65351507  0.28582322    -0.20600
C2666       C  0.46367180  0.69093216  0.30034273    -0.20600
C2667       C  0.59509982  0.66338199  0.24779654    -0.21700
C2668       C  0.55662819  0.66404391  0.24420275    -0.21700
C2669       C  0.64488812  0.76909835  0.28239381    -0.21700
C2670       C  0.60442399  0.76810246  0.28236255    -0.21700
C2671       C  0.61554142  0.61081210  0.26674530    -0.17000
C2672       C  0.68651868  0.75179127  0.31386710    -0.17000
C2673       C  0.54370087  0.74798899  0.31402332    -0.17000
C2674       C  0.47922026  0.61773212  0.25917436    -0.17000
H2675       H  0.70255367  0.63119274  0.28761688     0.15900
H2676       H  0.74321156  0.70845999  0.30850844     0.15900
H2677       H  0.91209436  0.63430464  0.28152912     0.15900
H2678       H  0.94206956  0.69997018  0.30978808     0.15900
H2679       H  0.62828700  0.69131132  0.24464043     0.14200
H2680       H  0.55477874  0.69320904  0.23890885     0.14200
H2681       H  0.66426881  0.77069519  0.26608716     0.14200
H2682       H  0.58678597  0.76907222  0.26603746     0.14200
H2683       H  0.61191756  0.67953872  0.29358172     0.27400
H2684       H  0.54963234  0.68231089  0.28802757     0.27400
N2685       N  0.83517194  0.99841930  0.28991810    -0.35300
N2686       N  0.75460428  0.89605962  0.32182913    -0.55900
N2687       N  0.83053231  0.87327603  0.28929524    -0.35300
N2688       N  0.89350879  0.96570431  0.27189550    -0.55900
C2689       C  0.79938633  0.00216491  0.29744566     0.28300
C2690       C  0.86276605  0.03446183  0.27543082     0.28300
C2691       C  0.79948855  0.83468229  0.30090102     0.28300
C2692       C  0.86478979  0.86779818  0.28062506     0.28300
C2693       C  0.75021266  0.92549403  0.30692487     0.36900
C2694       C  0.74579165  0.85976743  0.30772989     0.36900
C2695       C  0.91841303  0.00958241  0.26488794     0.36900
C2696       C  0.91659327  0.94510001  0.26435175     0.36900
C2697       C  0.80393541  0.53999411  0.28788866    -0.20600
C2698       C  0.84327390  0.56079646  0.27484814    -0.20600
C2699       C  0.81460226  0.80463349  0.29926130    -0.20600
C2700       C  0.85536512  0.82556499  0.28745334    -0.20600
C2701       C  0.74110257  0.90877586  0.28289441    -0.21700
C2702       C  0.73840627  0.86774152  0.28341082    -0.21700
C2703       C  0.95705105  0.01553167  0.25402174    -0.21700
C2704       C  0.95580597  0.97673680  0.25334034    -0.21700
C2705       C  0.76349521  0.97088228  0.31288459    -0.17000
C2706       C  0.90380384  0.04187256  0.26247887    -0.17000
C2707       C  0.90225788  0.89806811  0.26504139    -0.17000
C2708       C  0.75961665  0.82822184  0.31380848    -0.17000
H2709       H  0.77984732  0.55111105  0.28913773     0.15900
H2710       H  0.85196205  0.59116533  0.26525085     0.15900
H2711       H  0.79978640  0.77153518  0.30642934     0.15900
H2712       H  0.87512386  0.81041504  0.28427257     0.15900
H2713       H  0.73894548  0.92567276  0.26645959     0.14200
H2714       H  0.73499336  0.84745656  0.26732542     0.14200
H2715       H  0.98139680  0.54120952  0.24224249     0.14200
H2716       H  0.98115190  0.97428087  0.24321686     0.14200
H2717       H  0.84045702  0.97289282  0.29581091     0.27400
H2718       H  0.82751556  0.90142517  0.28708545     0.27400
N2719       N  0.52025846  0.86849475  0.29039028    -0.35300
N2720       N  0.61272354  0.90361136  0.30876045    -0.55900
N2721       N  0.65265913  0.99918977  0.28666533    -0.35300
N2722       N  0.54229121  0.96428669  0.25881376    -0.55900
C2723       C  0.51619039  0.82995023  0.29974083     0.28300
C2724       C  0.48179257  0.85872646  0.27806757     0.28300
C2725       C  0.67171428  0.00102540  0.30912436     0.28300
C2726       C  0.64083663  0.03149871  0.28598004     0.28300
C2727       C  0.59424301  0.85945551  0.31527756     0.36900
C2728       C  0.65629044  0.92441234  0.31643548     0.36900
C2729       C  0.50519870  0.93607606  0.27223669     0.36900
C2730       C  0.56548822  0.00242094  0.27221462     0.36900
C2731       C  0.47497029  0.79589676  0.29283553    -0.20600
C2732       C  0.95338182  0.81320996  0.27969160    -0.20600
C2733       C  0.66643963  0.52855208  0.32431970    -0.20600
C2734       C  0.64862519  0.54896097  0.31016888    -0.20600
C2735       C  0.62690339  0.85371023  0.32609069    -0.21700
C2736       C  0.66354253  0.89302107  0.32771082    -0.21700
C2737       C  0.50616859  0.95483782  0.29512468    -0.21700
C2738       C  0.54393138  0.99656020  0.29509215    -0.21700
C2739       C  0.54770765  0.82474614  0.31494095    -0.17000
C2740       C  0.47389417  0.89120749  0.26563391    -0.17000
C2741       C  0.61178509  0.03392090  0.26804828    -0.17000
C2742       C  0.68784511  0.97168467  0.31720019    -0.17000
H2743       H  0.96089825  0.76166933  0.29639915     0.15900
H2744       H  0.92120558  0.79262405  0.27167345     0.15900
H2745       H  0.67233568  0.53391517  0.34404769     0.15900
H2746       H  0.63804207  0.57150011  0.31717823     0.15900
H2747       H  0.62588758  0.82593060  0.33509690     0.14200
H2748       H  0.69023536  0.89592695  0.33876319     0.14200
H2749       H  0.48262057  0.93949838  0.31036769     0.14200
H2750       H  0.55704047  0.51535393  0.31345306     0.14200
H2751       H  0.54739463  0.90038689  0.29261014     0.27400
H2752       H  0.64737885  0.97635302  0.27254594     0.27400
C2753       C  0.84908766  0.93892670  0.66784979    -0.01200
C2754       C  0.56574211  0.64556013  0.66694605    -0.01200
C2755       C  0.56048806  0.93466941  0.66634107    -0.01200
O2756       O  0.55097002  0.49443438  0.83672552    -0.80500
C2757       C  0.91345019  0.96215255  0.76999819     0.98800
O2758       O  0.91632586  0.93306310  0.78281542    -0.69600
O2759       O  0.98997876  0.93224687  0.77504482    -0.73200
Al2760     Al  0.96234687  0.93585598  0.80410994     1.49000
C2761       C  0.53144336  0.94859533  0.77158440     0.94100
O2762       O  0.56183023  0.55192776  0.77494719    -0.79400
O2763       O  0.99807750  0.55773127  0.83500390    -0.73000
Al2764     Al  0.55458442  0.52196182  0.80551687     1.90100
O2765       O  0.51583043  0.57690887  0.78317385    -0.72100
O2766       O  0.92108846  0.49360303  0.82547693    -0.71900
O2767       O  0.93766090  0.50656798  0.77477957    -0.77600
O2768       O  0.93307579  0.93485531  0.83315024    -0.75800
O2769       O  0.99545021  0.49757574  0.80414834    -1.11900
O2770       O  0.50086349  0.92571555  0.82561532    -0.71100
C2771       C  0.52766470  0.95189406  0.84176408     0.99600
C2772       C  0.54583626  0.57661413  0.76947794     0.96000
Al2773     Al  0.97035809  0.53162717  0.80452648     1.55600
O2774       O  0.55868768  0.47689770  0.78692116    -0.75700
C2775       C  0.91655301  0.95830847  0.83956976     1.00200
C2776       C  0.53856785  0.57325795  0.84002522     0.95100
O2777       O  0.56499620  0.57252118  0.82411076    -0.81100
C2778       C  0.76773662  0.55865702  0.58706060    -0.01200
C2779       C  0.95918142  0.74169830  0.58796674    -0.01200
C2780       C  0.75717416  0.74505632  0.58552367    -0.01200
O2781       O  0.88747120  0.67464954  0.41695066    -0.80500
C2782       C  0.78365994  0.71283018  0.48082424     0.98800
O2783       O  0.81431465  0.74199135  0.46713968    -0.69600
O2784       O  0.88336909  0.73620785  0.47612865    -0.73200
Al2785     Al  0.85692342  0.73598388  0.44635957     1.49000
C2786       C  0.90151444  0.71459501  0.48308449     0.94100
O2787       O  0.82880080  0.61746068  0.47447489    -0.79400
O2788       O  0.76693045  0.61815994  0.41466046    -0.73000
Al2789     Al  0.85672384  0.64688651  0.44581393     1.90100
O2790       O  0.76002489  0.59961595  0.46747504    -0.72100
O2791       O  0.76331803  0.68886913  0.42356118    -0.71900
O2792       O  0.76289798  0.67300808  0.47402730    -0.77600
O2793       O  0.83260634  0.74070986  0.41666558    -0.75800
O2794       O  0.82700582  0.67664139  0.44561777    -1.11900
O2795       O  0.90594759  0.74327471  0.42577294    -0.71100
C2796       C  0.90768768  0.71521330  0.41143628     0.99600
C2797       C  0.78958160  0.60174445  0.48215012     0.96000
Al2798     Al  0.76760499  0.64694575  0.44486532     1.55600
O2799       O  0.90324579  0.68686590  0.46839166    -0.75700
C2800       C  0.79248528  0.72054654  0.41041928     1.00200
C2801       C  0.78994835  0.60077645  0.40854453     0.95100
O2802       O  0.81702067  0.60019650  0.42397802    -0.81100
N2803       N  0.96536809  0.83942644  0.62954857    -0.35300
N2804       N  0.93679479  0.90264863  0.64651788    -0.55900
N2805       N  0.83523848  0.83785210  0.63172609    -0.35300
N2806       N  0.87815629  0.78320683  0.61023707    -0.55900
C2807       C  0.00428633  0.87800646  0.63360845     0.28300
C2808       C  0.97524508  0.81196304  0.61611812     0.28300
C2809       C  0.84855703  0.88237731  0.63259131     0.28300
C2810       C  0.82037807  0.82244094  0.60824563     0.28300
C2811       C  0.97377524  0.91333100  0.66059107     0.36900
C2812       C  0.91337116  0.91921350  0.65892162     0.36900
C2813       C  0.89647994  0.75655260  0.60582249     0.36900
C2814       C  0.83537991  0.76085099  0.60153436     0.36900
C2815       C  0.53786348  0.87567809  0.62149558    -0.20600
C2816       C  0.02136841  0.83291197  0.61396789    -0.20600
C2817       C  0.84869533  0.89674033  0.60863299    -0.20600
C2818       C  0.83167132  0.85968493  0.59337668    -0.20600
C2819       C  0.96985316  0.93270576  0.68213567    -0.21700
C2820       C  0.93675910  0.94092523  0.67953447    -0.21700
C2821       C  0.86424776  0.71764444  0.59517632    -0.21700
C2822       C  0.82872608  0.72173503  0.59111717    -0.21700
C2823       C  0.01164585  0.90852282  0.65315926    -0.17000
C2824       C  0.94357289  0.77053626  0.60462402    -0.17000
C2825       C  0.80433071  0.77718819  0.59967585    -0.17000
C2826       C  0.86963068  0.91159990  0.65328288    -0.17000
H2827       H  0.57122066  0.90122559  0.61941419     0.15900
H2828       H  0.04279243  0.82052354  0.60791037     0.15900
H2829       H  0.86215716  0.93081241  0.60245242     0.15900
H2830       H  0.82819694  0.86116281  0.57351708     0.15900
H2831       H  0.98738001  0.94273965  0.69923323     0.14200
H2832       H  0.93133597  0.95843906  0.69373083     0.14200
H2833       H  0.86603941  0.69031646  0.58711318     0.14200
H2834       H  0.80371939  0.69871977  0.57899826     0.14200
H2835       H  0.93500439  0.83039252  0.63826197     0.27400
H2836       H  0.83507403  0.81855847  0.64672746     0.27400
N2837       N  0.65366777  0.65060839  0.62328348    -0.35300
N2838       N  0.74091826  0.63928908  0.59696337    -0.55900
N2839       N  0.66164760  0.53304357  0.62773684    -0.35300
N2840       N  0.59112040  0.55468179  0.63862764    -0.55900
C2841       C  0.68387345  0.69139276  0.61370065     0.28300
C2842       C  0.61546851  0.65071440  0.62879017     0.28300
C2843       C  0.69649839  0.53032770  0.61741124     0.28300
C2844       C  0.62945556  0.49183714  0.63572795     0.28300
C2845       C  0.74174382  0.67219791  0.61135875     0.36900
C2846       C  0.74448487  0.61001645  0.61224027     0.36900
C2847       C  0.56855844  0.57530603  0.64760129     0.36900
C2848       C  0.57599495  0.51572385  0.65197157     0.36900
C2849       C  0.66381855  0.71758024  0.61403806    -0.20600
C2850       C  0.61996310  0.69049376  0.62056378    -0.20600
C2851       C  0.68709289  0.48713610  0.61911261    -0.20600
C2852       C  0.64555533  0.46298759  0.62950251    -0.20600
C2853       C  0.74390279  0.66248292  0.63617393    -0.21700
C2854       C  0.74438858  0.62299674  0.63673753    -0.21700
C2855       C  0.53690505  0.54700559  0.66408610    -0.21700
C2856       C  0.54537866  0.51403855  0.66865234    -0.21700
C2857       C  0.72715249  0.70235259  0.60350170    -0.17000
C2858       C  0.58270230  0.62233579  0.64675968    -0.17000
C2859       C  0.58991173  0.48229925  0.65087894    -0.17000
C2860       C  0.73468410  0.56611303  0.60515550    -0.17000
H2861       H  0.67815966  0.75274871  0.61064789     0.15900
H2862       H  0.59521636  0.70066686  0.62178503     0.15900
H2863       H  0.70730944  0.47338837  0.61355968     0.15900
H2864       H  0.63364144  0.92769668  0.63347197     0.15900
H2865       H  0.74110058  0.67994594  0.65219858     0.14200
H2866       H  0.74218213  0.60429568  0.65336877     0.14200
H2867       H  0.51792145  0.55375560  0.67684819     0.14200
H2868       H  0.53889095  0.50009408  0.68666043     0.14200
H2869       H  0.65954913  0.62470942  0.62721463     0.27400
H2870       H  0.66098240  0.56241865  0.62959610     0.27400
N2871       N  0.94095040  0.56705368  0.64859506    -0.35300
N2872       N  0.99248812  0.66740076  0.62417007    -0.55900
N2873       N  0.88614992  0.62689803  0.60183247    -0.35300
N2874       N  0.85058175  0.53665197  0.62902151    -0.55900
C2875       C  0.97599800  0.59471513  0.66384161     0.28300
C2876       C  0.91369985  0.52800705  0.66170217     0.28300
C2877       C  0.90930673  0.66710111  0.61246108     0.28300
C2878       C  0.84360770  0.60777710  0.61062878     0.28300
C2879       C  0.00956736  0.66991779  0.64715621     0.36900
C2880       C  0.98456133  0.70211870  0.62163096     0.36900
C2881       C  0.84674454  0.49651071  0.63477447     0.36900
C2882       C  0.81553331  0.52922568  0.61413039     0.36900
C2883       C  0.96660657  0.57520648  0.68685461    -0.20600
C2884       C  0.93313228  0.53350012  0.68463110    -0.20600
C2885       C  0.88463181  0.66974818  0.63222564    -0.20600
C2886       C  0.84285574  0.63201366  0.63095434    -0.20600
C2887       C  0.50534500  0.70198207  0.66056854    -0.21700
C2888       C  0.99237579  0.72396601  0.64414734    -0.22900
C2889       C  0.80979181  0.46360639  0.62266435    -0.21700
C2890       C  0.78960096  0.48352302  0.61064037    -0.21700
C2891       C  0.01660223  0.63630758  0.65803265    -0.17000
C2892       C  0.87105223  0.48933169  0.65422971    -0.17000
C2893       C  0.80921113  0.56458729  0.60398946    -0.17000
C2894       C  0.95245138  0.70031136  0.60479886    -0.17000
H2895       H  0.98190028  0.58583576  0.70434681     0.15900
H2896       H  0.92723070  0.51284284  0.70009001     0.15900
H2897       H  0.89516714  0.69652925  0.64554817     0.15900
H2898       H  0.81645776  0.62222585  0.64447996     0.15900
H2899       H  0.50991985  0.70859088  0.68025930     0.14200
H2900       H  0.98323667  0.74856239  0.64923253     0.14200
H2901       H  0.79720204  0.92727458  0.62332334     0.14200
H2902       H  0.75970760  0.46444187  0.60021662     0.14200
H2903       H  0.93762272  0.57328541  0.62993091     0.27400
H2904       H  0.90004398  0.61266937  0.59030060     0.27400
C2905       C  0.80255817  0.76795615  0.54374391     0.24900
C2906       C  0.76898200  0.73361582  0.55901903    -0.23200
C2907       C  0.74007616  0.69304682  0.54675423     0.19800
C2908       C  0.74119011  0.68940202  0.52092451     0.24800
C2909       C  0.77496161  0.72322871  0.50636335    -0.23200
C2910       C  0.80505061  0.76295018  0.51802854     0.19700
F2911       F  0.83720368  0.79742663  0.50458872    -0.13100
F2912       F  0.83450669  0.80660352  0.55340961    -0.15500
F2913       F  0.70754149  0.65297273  0.50999090    -0.15500
F2914       F  0.70741697  0.65760879  0.55905567    -0.13100
C2915       C  0.93604137  0.69390085  0.54713028     0.24900
C2916       C  0.93351591  0.72649060  0.56226681    -0.23200
C2917       C  0.92059993  0.75453581  0.54957951     0.19800
C2918       C  0.91271079  0.75137125  0.52424395     0.24800
C2919       C  0.91657947  0.72012175  0.50947243    -0.23200
C2920       C  0.92888771  0.69168128  0.52117816     0.19700
F2921       F  0.93543827  0.66251015  0.50745603    -0.13100
F2922       F  0.94887596  0.66611535  0.55694342    -0.15500
F2923       F  0.90312025  0.78140717  0.51406827    -0.15500
F2924       F  0.91854183  0.78851707  0.56073694    -0.13100
C2925       C  0.74499719  0.58936557  0.54900879     0.24900
C2926       C  0.78035108  0.59044054  0.56345229    -0.23200
C2927       C  0.81888182  0.60015365  0.54926648     0.19800
C2928       C  0.81860688  0.59777512  0.52349120     0.24800
C2929       C  0.78249338  0.59278782  0.50951907    -0.23200
C2930       C  0.74559673  0.58889737  0.52263463     0.19700
F2931       F  0.70857068  0.58098602  0.51007019    -0.13100
F2932       F  0.70647767  0.58181368  0.55997977    -0.15500
F2933       F  0.85359288  0.59709118  0.51228974    -0.15500
F2934       F  0.85516435  0.60324048  0.55941680    -0.13100
C2935       C  0.52188346  0.90075248  0.70908017     0.24900
C2936       C  0.55459654  0.93887464  0.69521353    -0.23200
C2937       C  0.58692906  0.97501361  0.70964354     0.19800
C2938       C  0.58381380  0.97430506  0.73565631     0.24800
C2939       C  0.54675797  0.93987124  0.74787705    -0.23200
C2940       C  0.51774031  0.90193515  0.73468018     0.19700
F2941       F  0.98254907  0.86676692  0.74638546    -0.13100
F2942       F  0.98919144  0.86383146  0.69770274    -0.15500
F2943       F  0.61596665  0.00845951  0.74887445    -0.15500
F2944       F  0.62087319  0.01187117  0.69882567    -0.13100
C2945       C  0.54898081  0.64728314  0.71459151     0.24900
C2946       C  0.56449329  0.63020706  0.69505134    -0.23200
C2947       C  0.58848259  0.60918923  0.70352511     0.19800
C2948       C  0.58551488  0.59536820  0.72818239     0.24800
C2949       C  0.55986570  0.60272090  0.74579620    -0.23200
C2950       C  0.54477868  0.63207626  0.73927461     0.19700
F2951       F  0.02347775  0.64491921  0.75641397    -0.13100
F2952       F  0.53155657  0.67355782  0.70938611    -0.15500
F2953       F  0.60878928  0.57529930  0.73475608    -0.15500
F2954       F  0.61686046  0.60320213  0.68867448    -0.13100
C2955       C  0.87316738  0.90960622  0.73454783     0.24900
C2956       C  0.88382943  0.94863815  0.74780972    -0.23200
C2957       C  0.86988558  0.97711214  0.73795652     0.19800
C2958       C  0.85420765  0.97164849  0.71344512     0.24800
C2959       C  0.85587364  0.93957713  0.69731990    -0.23200
C2960       C  0.85730578  0.90403802  0.71004345     0.19700
F2961       F  0.84871375  0.86612856  0.69800959    -0.13100
F2962       F  0.88173060  0.87853744  0.74429267    -0.15500
F2963       F  0.84699519  0.00400846  0.70432288    -0.15500
F2964       F  0.87549448  0.51659549  0.75043761    -0.13100
C2965       C  0.91994113  0.53091513  0.20610268     0.24900
C2966       C  0.94720305  0.57293933  0.21759181    -0.23200
C2967       C  0.97772340  0.60771450  0.20101925     0.19800
C2968       C  0.98293659  0.59999541  0.17594561     0.24800
C2969       C  0.95489868  0.55867118  0.16537553    -0.23200
C2970       C  0.92181899  0.52529599  0.18057633     0.19700
F2971       F  0.88950750  0.48674847  0.17063518    -0.13100
F2972       F  0.88803965  0.49508217  0.21863849    -0.15500
F2973       F  0.01393059  0.63403164  0.16173702    -0.15500
F2974       F  0.99995665  0.65079949  0.20786665    -0.13100
C2975       C  0.98118959  0.90851428  0.20904627     0.24900
C2976       C  0.94394714  0.90474652  0.22254713    -0.23200
C2977       C  0.91140706  0.90857398  0.20810559     0.19800
C2978       C  0.91364172  0.91072184  0.18201871     0.24800
C2979       C  0.94910838  0.91118670  0.16908358    -0.23200
C2980       C  0.98184389  0.90837159  0.18300256     0.19700
F2981       F  0.51408940  0.90336220  0.17132915    -0.13100
F2982       F  0.01536414  0.90761971  0.22057743    -0.15500
F2983       F  0.87970906  0.91032591  0.16937719    -0.15500
F2984       F  0.87518482  0.90716590  0.21891221    -0.13100
C2985       C  0.58739710  0.51243813  0.18786155     0.24900
C2986       C  0.58493825  0.54357993  0.17239922    -0.23200
C2987       C  0.59309866  0.58368478  0.18320717     0.19800
C2988       C  0.60434560  0.59288485  0.20809949     0.24800
C2989       C  0.60240681  0.56063442  0.22540014    -0.23200
C2990       C  0.59491004  0.52003759  0.21372473     0.19700
F2991       F  0.60115578  0.48962937  0.22610231    -0.13100
F2992       F  0.58558056  0.47575717  0.17779333    -0.15500
F2993       F  0.62514883  0.63659548  0.21301983    -0.15500
F2994       F  0.59495141  0.61712097  0.16904206    -0.13100
C2995       C  0.70201893  0.99116762  0.56397622     0.24900
C2996       C  0.74736861  0.01332056  0.57205456    -0.23200
C2997       C  0.77648649  0.00295231  0.55792390     0.19800
C2998       C  0.76211273  0.97508916  0.53721497     0.24800
C2999       C  0.71814188  0.95596418  0.52914107    -0.23200
C3000       C  0.68785985  0.96249413  0.54355493     0.19700
F3001       F  0.64428748  0.94337419  0.53704259    -0.13100
F3002       F  0.67108713  0.00020429  0.57342624    -0.15500
F3003       F  0.79231548  0.96822875  0.52456771    -0.15500
F3004       F  0.82005760  0.52139203  0.56381340    -0.13100
C3005       C  0.68083194  0.75042819  0.53878438     0.24900
C3006       C  0.70657438  0.79538268  0.53245363    -0.23200
C3007       C  0.73184814  0.82532889  0.55156666     0.19800
C3008       C  0.73963438  0.80888844  0.57381821     0.24800
C3009       C  0.72687739  0.76368176  0.57558761    -0.23200
C3010       C  0.68876429  0.73514037  0.56083060     0.19700
F3011       F  0.66224359  0.69111894  0.56557113    -0.13100
F3012       F  0.64875523  0.72054191  0.52347660    -0.15500
F3013       F  0.74748537  0.83318464  0.59489006    -0.15500
F3014       F  0.74600803  0.86947339  0.54953765    -0.13100
C3015       C  0.51715574  0.80924031  0.56159942     0.24900
C3016       C  0.50657595  0.76926878  0.57518780    -0.23200
C3017       C  0.53164161  0.74856530  0.56807038     0.19800
C3018       C  0.55854357  0.76206792  0.54669218     0.24800
C3019       C  0.56233786  0.79707523  0.53167464    -0.23200
C3020       C  0.54389267  0.82223822  0.54033763     0.19700
F3021       F  0.54947266  0.85848784  0.52750265    -0.13100
F3022       F  0.49813338  0.83421120  0.56697533    -0.15500
F3023       F  0.57839578  0.73828956  0.53991659    -0.15500
F3024       F  0.52649256  0.71135956  0.57924426    -0.13100
C3025       C  0.80804497  0.54600678  0.35150259     0.24900
C3026       C  0.76914765  0.53568220  0.33761286    -0.23200
C3027       C  0.75587674  0.56737659  0.34089339     0.19800
C3028       C  0.76085655  0.58771673  0.36425944     0.24800
C3029       C  0.78624046  0.58225461  0.38295895    -0.23200
C3030       C  0.81396015  0.56552131  0.37511931     0.19700
F3031       F  0.84644210  0.56768303  0.39004391    -0.13100
F3032       F  0.83665476  0.53215430  0.34412404    -0.15500
F3033       F  0.74459885  0.61572626  0.36756862    -0.15500
F3034       F  0.75061833  0.58743231  0.32052049    -0.13100
C3035       C  0.69063176  0.96504562  0.37270477     0.24900
C3036       C  0.72591143  0.96684914  0.35775721    -0.23200
C3037       C  0.75582841  0.95667925  0.37013265     0.19800
C3038       C  0.75243699  0.94853740  0.39574148     0.24800
C3039       C  0.71655290  0.94536541  0.40984728    -0.23200
C3040       C  0.68585644  0.95392358  0.39800106     0.19700
F3041       F  0.65022398  0.95063270  0.41072015    -0.13100
F3042       F  0.65865033  0.97184277  0.36311232    -0.15500
F3043       F  0.78544651  0.94483765  0.40686814    -0.15500
F3044       F  0.79039521  0.95686993  0.35805218    -0.13100
C3045       C  0.72460853  0.71928722  0.35597808     0.24900
C3046       C  0.75118500  0.76246828  0.34466571    -0.23200
C3047       C  0.79463127  0.78897656  0.35510637     0.19800
C3048       C  0.80836636  0.77483785  0.37579895     0.24800
C3049       C  0.77978029  0.73394386  0.38730606    -0.23200
C3050       C  0.73892571  0.70561393  0.37642331     0.19700
F3051       F  0.71079603  0.66493427  0.38648763    -0.13100
F3052       F  0.68193123  0.69059458  0.34968913    -0.15500
F3053       F  0.84871868  0.80337767  0.38573592    -0.15500
F3054       F  0.82303846  0.83128863  0.34765370    -0.13100
C3055       C  0.74485827  0.83630514  0.36957879     0.24900
C3056       C  0.71226656  0.79986510  0.35513706    -0.23200
C3057       C  0.67502279  0.76682393  0.36898292     0.19800
C3058       C  0.67380380  0.76707688  0.39490918     0.24800
C3059       C  0.70731457  0.80191446  0.40864592    -0.23200
C3060       C  0.74306328  0.83612677  0.39570779     0.19700
F3061       F  0.77784268  0.86844749  0.40842648    -0.13100
F3062       F  0.78215231  0.86998641  0.35909792    -0.15500
F3063       F  0.64067172  0.73088421  0.40675369    -0.15500
F3064       F  0.64215215  0.72975846  0.35829742    -0.13100
C3065       C  0.94549368  0.70055195  0.37650497     0.24900
C3066       C  0.93255381  0.72870806  0.38764703    -0.23200
C3067       C  0.94050427  0.76722916  0.37488666     0.19800
C3068       C  0.96550348  0.78004872  0.35267279     0.24800
C3069       C  0.98488527  0.75514172  0.34281399    -0.23200
C3070       C  0.97004317  0.71264924  0.35456726     0.19700
F3071       F  0.98470362  0.68458335  0.34759130    -0.13100
F3072       F  0.93798980  0.66239801  0.38798484    -0.15500
F3073       F  0.97528973  0.82018331  0.34331868    -0.15500
F3074       F  0.92570420  0.79382397  0.38443316    -0.13100
C3075       C  0.56720411  0.76417522  0.39769080     0.24900
C3076       C  0.57004384  0.80093871  0.41027811    -0.23200
C3077       C  0.56614411  0.83302189  0.39642882     0.19800
C3078       C  0.56025267  0.82915057  0.37079935     0.24800
C3079       C  0.55717645  0.79212124  0.35735319    -0.23200
C3080       C  0.56335225  0.76094716  0.37160775     0.19700
F3081       F  0.56252380  0.72525788  0.36083149    -0.13100
F3082       F  0.56719382  0.73064302  0.41068421    -0.15500
F3083       F  0.55513110  0.86136750  0.35964509    -0.15500
F3084       F  0.56674721  0.86830952  0.40785974    -0.13100
C3085       C  0.92560468  0.64966760  0.22640690     0.24900
C3086       C  0.90657712  0.60405438  0.23345815    -0.23200
C3087       C  0.86561600  0.57330889  0.22155266     0.19800
C3088       C  0.84984629  0.58554990  0.20148734     0.24800
C3089       C  0.87264852  0.62903433  0.19269770    -0.23200
C3090       C  0.90895128  0.66160856  0.20596091     0.19700
F3091       F  0.92978250  0.70471829  0.19838862    -0.13100
F3092       F  0.96356103  0.68240643  0.23658134    -0.15500
F3093       F  0.81431301  0.55316018  0.18907573    -0.15500
F3094       F  0.84260154  0.52930566  0.22715951    -0.13100
C3095       C  0.91217653  0.79163582  0.20254998     0.24900
C3096       C  0.87009489  0.77957446  0.19291447    -0.23200
C3097       C  0.84246679  0.79015037  0.20694264     0.19800
C3098       C  0.85808940  0.81595424  0.22870499     0.24800
C3099       C  0.90275692  0.83236115  0.23766465    -0.23200
C3100       C  0.92699440  0.81476533  0.22486146     0.19700
F3101       F  0.96955787  0.82701751  0.23067088    -0.13100
F3102       F  0.94180237  0.78501014  0.18912509    -0.15500
F3103       F  0.83049093  0.82930094  0.23835919    -0.15500
F3104       F  0.80099677  0.77817573  0.19878739    -0.13100
C3105       C  0.69736250  0.64347309  0.23385208     0.24900
C3106       C  0.67587981  0.59859483  0.24291312    -0.23200
C3107       C  0.69087117  0.57147171  0.23114646     0.19800
C3108       C  0.70972198  0.58183781  0.20710291     0.24800
C3109       C  0.71965763  0.62222015  0.19573125    -0.23200
C3110       C  0.71741319  0.65433747  0.21045895     0.19700
F3111       F  0.73036938  0.69568020  0.20143489    -0.13100
F3112       F  0.69219384  0.67610489  0.24425292    -0.15500
F3113       F  0.71650464  0.55150200  0.19474528    -0.15500
F3114       F  0.68106509  0.53151582  0.24061771    -0.13100
C3115       C  0.96843022  0.60884297  0.05016569     0.24900
C3116       C  0.96392909  0.56719697  0.04705463    -0.23200
C3117       C  0.95279506  0.54700247  0.02340938     0.19800
C3118       C  0.93906430  0.56579671  0.00448811     0.24800
C3119       C  0.93018413  0.60019474  0.01062172    -0.23200
C3120       C  0.95222518  0.62553825  0.03234183     0.19700
F3121       F  0.94823790  0.66055887  0.03997068    -0.13100
F3122       F  0.98311508  0.63089475  0.07211576    -0.15500
F3123       F  0.93496049  0.55077031  0.98078326    -0.15500
F3124       F  0.95456889  0.50939412  0.01884073    -0.13100
C3125       C  0.84873623  0.58160972  0.06687841     0.24900
C3126       C  0.85283204  0.62247123  0.07333078    -0.23200
C3127       C  0.85329594  0.65008173  0.05421248     0.19800
C3128       C  0.85905562  0.64161350  0.02963693     0.24800
C3129       C  0.86620019  0.60692756  0.02305450    -0.23200
C3130       C  0.85422333  0.57327755  0.04187256     0.19700
F3131       F  0.85433818  0.53517104  0.03720489    -0.13100
F3132       F  0.84258619  0.55120139  0.08470608    -0.15500
F3133       F  0.85619174  0.66669601  0.01226385    -0.15500
F3134       F  0.84788800  0.68539215  0.05924101    -0.13100
C3135       C  0.89709291  0.88944763  0.03889482     0.24900
C3136       C  0.94195022  0.90679654  0.04567324    -0.23200
C3137       C  0.97290017  0.91458131  0.02652304     0.19800
C3138       C  0.95715413  0.89492679  0.00322062     0.24800
C3139       C  0.91251517  0.86154579  0.00113013    -0.23200
C3140       C  0.88313432  0.87035494  0.01557164     0.19700
F3141       F  0.83938584  0.85254793  0.01011282    -0.13100
F3142       F  0.86646826  0.88924935  0.05498774    -0.15500
F3143       F  0.98127789  0.91564745  0.98241875    -0.15500
F3144       F  0.01690224  0.94383564  0.02958562    -0.13100
C3145       C  0.83095498  0.76887322  0.05659980     0.24900
C3146       C  0.86385101  0.77286261  0.07309504    -0.23200
C3147       C  0.90712061  0.78925445  0.06392458     0.19800
C3148       C  0.91681534  0.80051181  0.03885813     0.24800
C3149       C  0.88301979  0.79123107  0.02099351    -0.23200
C3150       C  0.83924400  0.77512312  0.03103534     0.19700
F3151       F  0.80479495  0.77045585  0.01709308    -0.13100
F3152       F  0.79092733  0.76123127  0.06535150    -0.15500
F3153       F  0.96036012  0.82519905  0.03300280    -0.15500
F3154       F  0.94095018  0.79645886  0.07936970    -0.13100
C3155       C  0.63504401  0.53358926  0.01146477     0.24900
C3156       C  0.65310021  0.57819019  0.00246878    -0.23200
C3157       C  0.63701853  0.60387462  0.01544536     0.19800
C3158       C  0.61363354  0.58955319  0.03796308     0.24800
C3159       C  0.60487667  0.54935950  0.04879483    -0.23200
C3160       C  0.61343420  0.52044243  0.03464272     0.19700
F3161       F  0.60373522  0.48008345  0.04392579    -0.13100
F3162       F  0.64390757  0.50389432  0.00044421    -0.15500
F3163       F  0.60181573  0.61680253  0.04983557    -0.15500
F3164       F  0.64986616  0.64648699  0.00922179    -0.13100
C3165       C  0.73186408  0.58592706  0.05724691     0.24900
C3166       C  0.73135724  0.62112227  0.07018456    -0.23200
C3167       C  0.72940388  0.65395239  0.05617950     0.19800
C3168       C  0.73046789  0.65342487  0.03008850     0.24800
C3169       C  0.72602461  0.61573125  0.01662074    -0.23200
C3170       C  0.72870581  0.58288975  0.03122557     0.19700
F3171       F  0.72354754  0.54493454  0.02092345    -0.13100
F3172       F  0.73314286  0.55262305  0.06986493    -0.15500
F3173       F  0.73072186  0.68818000  0.01842293    -0.15500
F3174       F  0.72452520  0.68599002  0.06777863    -0.13100
C3175       C  0.75730523  0.92589032  0.70396065     0.24900
C3176       C  0.75056329  0.88664478  0.71555792    -0.23200
C3177       C  0.75412271  0.85546811  0.70018236     0.19800
C3178       C  0.77369122  0.86805140  0.67635473     0.24800
C3179       C  0.79620928  0.91361227  0.66910904    -0.23200
C3180       C  0.77616685  0.93725240  0.67980584     0.19700
F3181       F  0.78488741  0.97727151  0.67069388    -0.13100
F3182       F  0.75235644  0.95655783  0.71708706    -0.15500
F3183       F  0.77472940  0.83653051  0.66209030    -0.15500
F3184       F  0.74175511  0.81390654  0.70853701    -0.13100
C3185       C  0.65560765  0.72390156  0.70532695     0.24900
C3186       C  0.63326748  0.74636896  0.71278310    -0.23200
C3187       C  0.61181214  0.75693803  0.69410166     0.19800
C3188       C  0.59882468  0.73207830  0.67226561     0.24800
C3189       C  0.60510715  0.69532286  0.67038226    -0.23200
C3190       C  0.64507235  0.70250473  0.68215691     0.19700
F3191       F  0.66641308  0.68059767  0.67485922    -0.13100
F3192       F  0.68449646  0.72006878  0.72065221    -0.15500
F3193       F  0.59149961  0.75015940  0.65171371    -0.15500
F3194       F  0.60582364  0.79230009  0.69647239    -0.13100
C3195       C  0.56835797  0.84583689  0.69965632     0.24900
C3196       C  0.60598832  0.87435439  0.71338499    -0.23200
C3197       C  0.63761332  0.91465297  0.70251100     0.19800
C3198       C  0.62813743  0.93033339  0.68131930     0.24800
C3199       C  0.58478687  0.90678354  0.67027146    -0.23200
C3200       C  0.55968214  0.86047441  0.67715475     0.19700
F3201       F  0.52058573  0.83148367  0.66655628    -0.13100
F3202       F  0.53818887  0.80496564  0.70870993    -0.15500
F3203       F  0.65704974  0.97419441  0.67744923    -0.15500
F3204       F  0.67514720  0.94378897  0.71466915    -0.13100
C3205       C  0.61391365  0.64446507  0.89084110     0.24900
C3206       C  0.58176301  0.64640947  0.90671589    -0.23200
C3207       C  0.54030384  0.60696274  0.90707508     0.19800
C3208       C  0.52606953  0.58100079  0.88545471     0.24800
C3209       C  0.55490657  0.59278665  0.86466522    -0.23200
C3210       C  0.60047197  0.62027493  0.86889244     0.19700
F3211       F  0.63177153  0.62401706  0.85210529    -0.13100
F3212       F  0.65773499  0.66557866  0.89631143    -0.15500
F3213       F  0.48621042  0.54298305  0.88550900    -0.15500
F3214       F  0.51814800  0.58919351  0.92878371    -0.13100
C3215       C  0.63900907  0.75373074  0.85472408     0.24900
C3216       C  0.60745152  0.73118309  0.83621036    -0.23200
C3217       C  0.56387746  0.69999350  0.84414646     0.19800
C3218       C  0.55511843  0.68948355  0.86990931     0.24800
C3219       C  0.58920996  0.71270439  0.88805552    -0.23200
C3220       C  0.62511488  0.75052922  0.87919792     0.19700
F3221       F  0.64200603  0.78650744  0.89346761    -0.13100
F3222       F  0.68277771  0.78129844  0.84926272    -0.15500
F3223       F  0.51371812  0.65752133  0.87668594    -0.15500
F3224       F  0.53083774  0.67866308  0.82732554    -0.13100
C3225       C  0.86875465  0.97052841  0.90083387     0.24900
C3226       C  0.83901492  0.92506513  0.90683671    -0.23200
C3227       C  0.84809123  0.89386989  0.89445429     0.19800
C3228       C  0.87392884  0.90525964  0.87312198     0.24800
C3229       C  0.89279274  0.94825466  0.86347300    -0.23200
C3230       C  0.89223585  0.98152671  0.87809014     0.19700
F3231       F  0.91082438  0.52691820  0.86947179    -0.13100
F3232       F  0.86900711  0.00418705  0.91369198    -0.15500
F3233       F  0.87784484  0.87280044  0.86111397    -0.15500
F3234       F  0.83218098  0.85149953  0.90230219    -0.13100
C3235       C  0.70864837  0.86773006  0.86119996     0.24900
C3236       C  0.73966830  0.89009511  0.84183240    -0.23200
C3237       C  0.77720794  0.93028555  0.84815191     0.19800
C3238       C  0.78658091  0.94073808  0.87337881     0.24800
C3239       C  0.76614977  0.90668221  0.89196425    -0.23200
C3240       C  0.72231183  0.87519196  0.88623460     0.19700
F3241       F  0.69222976  0.85737430  0.90493271    -0.13100
F3242       F  0.66491915  0.84253894  0.85584324    -0.15500
F3243       F  0.80991004  0.98436339  0.87964763    -0.15500
F3244       F  0.80142742  0.96102815  0.83036396    -0.13100
C3245       C  0.51868657  0.87298632  0.89309386     0.24900
C3246       C  0.55532915  0.90264074  0.90803681    -0.23200
C3247       C  0.56107750  0.94548357  0.90847816     0.19800
C3248       C  0.55264769  0.96283974  0.88675073     0.24800
C3249       C  0.53159486  0.93444007  0.86630944    -0.23200
C3250       C  0.50994520  0.88843940  0.87101499     0.19700
F3251       F  0.48091061  0.85848762  0.85450172    -0.13100
F3252       F  0.49304490  0.82934316  0.89883334    -0.15500
F3253       F  0.56291485  0.00608504  0.88622225    -0.15500
F3254       F  0.56625918  0.96644797  0.93059486    -0.13100
C3255       C  0.63415861  0.91285602  0.87345939     0.24900
C3256       C  0.60416368  0.87807004  0.88973063    -0.23200
C3257       C  0.57467295  0.83667665  0.87793601     0.19800
C3258       C  0.57306046  0.83177969  0.85221760     0.24800
C3259       C  0.60179756  0.86683701  0.83651255    -0.23200
C3260       C  0.63271698  0.90742955  0.84746631     0.19700
F3261       F  0.66237223  0.94207503  0.83312371    -0.13100
F3262       F  0.66468484  0.95320541  0.88231638    -0.15500
F3263       F  0.54166493  0.79206651  0.84271123    -0.15500
F3264       F  0.54192453  0.80146548  0.89024720    -0.13100
loop_ 
_geom_bond_atom_site_label_1 
_geom_bond_atom_site_label_2 
_geom_bond_distance 
_geom_bond_site_symmetry_2 
_ccdc_geom_bond_type 
C1           C49   1.628       .  S
C1          C106   1.591       .  S
C1          C798   1.592       .  S
C1          C808   1.573       .  S
C2           C46   1.567       .  S
C2          C140   1.617       .  S
C2          C778   1.572       .  S
C2          C791   1.581       .  S
C3          C107   1.600       .  S
C3          C141   1.640       .  S
C3          C758   1.576       .  S
C3          C771   1.576       .  S
O4           C19   1.243       .  A
O4          Al12   1.808       .  S
C5           O15   1.254       .  A
C5            O6   1.262       .  A
C5          C768   1.482       .  S
O6           Al8   1.939       .  S
O7            C9   1.259       .  A
O7           Al8   1.868       .  S
Al8          O16   1.853       .  S
Al8          O18   1.936       .  S
Al8          O17   1.792       .  S
C9           O22   1.264       .  A
C9          C811   1.486       .  S
O10          C20   1.247       .  A
O10         Al12   1.846       .  S
O11          C24   1.249       .  A
O11         Al21   1.868       .  S
Al12         O25   1.919       .  S
Al12         O22   1.921       .  S
Al12         O17   1.788       .  S
O13          C20   1.273       .  A
O13         Al21   1.955       .  S
O14          C23   1.264       .  A
O14         Al21   1.915       .  S
O15         Al21   1.842       .  S
O16          C23   1.257       .  A
O17         Al21   1.778       .  S
O18          C19   1.264       .  A
C19         C748   1.468       .  S
C20         C788   1.470       .  S
C23         C738   1.467       .  S
C24          O25   1.263       .  A
C24         C728   1.494       .  S
N26          C31   1.359       .  A
N26         C846   1.350   1_545  A
N26          H58   1.043       .  S
N27          C34   1.357       .  A
N27          C35   1.359       .  A
N28          C33   1.362   1_565  A
N28         C848   1.366       .  A
N28          H59   1.042       .  S
N29          C36   1.360       .  A
N29          C37   1.357       .  A
C30         N842   1.348       .  A
C30          C38   1.376       .  A
C30          C46   1.405       .  A
C31          C47   1.437       .  A
C31          C39   1.392   1_545  A
C32         N844   1.366       .  A
C32          C40   1.397       .  A
C32          C49   1.462       .  A
C33          C48   1.433       .  A
C33          C41   1.381       .  A
C34          C46   1.419       .  A
C34          C42   1.380       .  A
C35          C49   1.416       .  A
C35          C43   1.387       .  A
C36          C44   1.385       .  A
C36          C47   1.423       .  A
C37          C45   1.387       .  A
C37          C48   1.425       .  A
C38         C855   1.380       .  A
C38          H50   1.078       .  S
C39         C854   1.380       .  A
C39          H51   1.068   1_566  S
C40         C857   1.396       .  A
C40          H52   1.079       .  S
C41         C856   1.396       .  A
C41          H53   1.082       .  S
C42          C43   1.374       .  A
C42          H54   1.082       .  S
C43          H55   1.079       .  S
C44          C45   1.383       .  A
C44          H56   1.082       .  S
C45          H57   1.082       .  S
C47          C62   1.584       .  S
C48          C60   1.614       .  S
C60         C142   1.625       .  S
C60         C708   1.584   1_556  S
C60         C721   1.590   1_556  S
C61         C105   1.654       .  S
C61         C139   1.642       .  S
C61         C691   1.582   1_556  S
C61         C701   1.585   1_556  S
C62         C108   1.615       .  S
C62         C671   1.571   1_556  S
C62         C681   1.582   1_556  S
O63          C78   1.264       .  A
O63         Al71   1.918       .  S
C64          O74   1.278       .  A
C64          O65   1.252       .  A
C64         C718   1.496       .  S
O65         Al67   1.844       .  S
O66          C68   1.262       .  A
O66         Al67   1.918       .  S
Al67         O75   1.909       .  S
Al67         O77   1.836       .  S
Al67         O76   1.791       .  S
C68          O81   1.257       .  A
C68         C678   1.465       .  S
O69          C79   1.259       .  A
O69         Al71   1.916       .  S
O70          C83   1.275       .  A
O70         Al80   1.962       .  S
Al71         O84   1.849       .  S
Al71         O81   1.864       .  S
Al71         O76   1.782       .  S
O72          C79   1.249       .  A
O72         Al80   1.858       .  S
O73          C82   1.250       .  A
O73         Al80   1.858       .  S
O74         Al80   1.963       .  S
O75          C82   1.257       .  A
O76         Al80   1.767       .  S
O77          C78   1.252       .  A
C78         C641   1.452       .  S
C79         C698   1.480       .  S
C82         C661   1.484       .  S
C83          O84   1.256       .  A
C83         C648   1.491       .  S
N85          C89   1.360       .  A
N85        C1722   1.355       .  A
N85         H117   1.045       .  S
N86          C93   1.367       .  A
N86          C94   1.368       .  A
N87          C91   1.362       .  A
N87        C1724   1.364       .  A
N87         H118   1.035       .  S
N88          C95   1.364       .  A
N88          C96   1.361       .  A
C89          C97   1.401       .  A
C89         C105   1.430       .  A
C90        N1717   1.355   1_455  A
C90         C106   1.407       .  A
C90          C98   1.366       .  A
C91          C99   1.378       .  A
C91         C108   1.439       .  A
C92        N1719   1.364   1_455  A
C92         C107   1.456       .  A
C92         C100   1.391   1_455  A
C93         C105   1.451       .  A
C93         C101   1.394   1_556  A
C94         C108   1.427       .  A
C94         C102   1.379   1_556  A
C95         C103   1.393       .  A
C95         C106   1.450       .  A
C96         C104   1.381       .  A
C96         C107   1.437       .  A
C97        C1730   1.369       .  A
C97         H109   1.073   1_556  S
C98        C1729   1.369       .  A
C98         H110   1.080       .  S
C99        C1732   1.386       .  A
C99         H111   1.079       .  S
C100       C1731   1.386       .  A
C100        H112   1.068       .  S
C101        C102   1.364       .  A
C101        H113   1.079       .  S
C102        H114   1.081       .  S
C103        C104   1.383       .  A
C103        H115   1.080       .  S
C104        H116   1.082       .  S
N119        C124   1.369       .  A
N119        C123   1.370       .  A
N119        H151   1.038       .  S
N120        C127   1.372       .  A
N120        C128   1.375       .  A
N121        C126   1.364       .  A
N121        C125   1.365       .  A
N121        H152   1.036       .  S
N122        C129   1.366       .  A
N122        C130   1.366       .  A
C123        C131   1.379       .  A
C123        C139   1.448       .  A
C124        C140   1.460       .  A
C124        C132   1.393       .  A
C125        C133   1.391       .  A
C125        C142   1.450       .  A
C126        C141   1.442       .  A
C126        C134   1.378       .  A
C127        C139   1.438       .  A
C127        C135   1.341       .  A
C128        C142   1.457       .  A
C128        C136   1.369       .  A
C129        C137   1.382       .  A
C129        C140   1.425       .  A
C130        C138   1.388       .  A
C130        C141   1.436       .  A
C131        C132   1.363       .  A
C131        H143   1.079       .  S
C132        H144   1.076       .  S
C133        C134   1.373       .  A
C133        H145   1.077       .  S
C134        H146   1.074       .  S
C135        C136   1.338       .  A
C135        H147   1.044       .  S
C136        H148   1.055       .  S
C137        C138   1.364       .  A
C137        H149   1.079       .  S
C138        H150   1.075       .  S
C153        C225   1.607       .  S
C153        C291   1.625       .  S
C153        C631   1.584       .  S
C153       C2253   1.573   1_455  S
C154        C224   1.606       .  S
C154        C260   1.610       .  S
C154        C598   1.584       .  S
C154        C608   1.572       .  S
C155        C257   1.620       .  S
C155        C294   1.635       .  S
C155        C588   1.580       .  S
C155       C1394   1.592       .  S
O156        C171   1.254       .  A
O156       Al164   1.862       .  S
C157        O167   1.252       .  A
C157        O158   1.269       .  A
C157        C591   1.484       .  S
O158       Al160   1.943       .  S
O159        C161   1.251       .  A
O159       Al160   1.846       .  S
Al160       O168   1.857       .  S
Al160       O170   1.933       .  S
Al160       O169   1.770       .  S
C161        O174   1.267       .  A
C161        C628   1.485       .  S
O162        C172   1.249       .  A
O162       Al164   1.827       .  S
O163        C176   1.252       .  A
O163       Al173   1.876       .  S
Al164       O177   1.911       .  S
Al164       O174   1.944       .  S
Al164       O169   1.786       .  S
O165        C172   1.273       .  A
O165       Al173   1.954       .  S
O166        C175   1.268       .  A
O166       Al173   1.934       .  S
O167       Al173   1.851       .  S
O168        C175   1.252       .  A
O169       Al173   1.779       .  S
O170        C171   1.270       .  A
C171        C571   1.482       .  S
C172        C611   1.480       .  S
C175        C551   1.483       .  S
C176        O177   1.264       .  A
C176        C558   1.478       .  S
C178        C223   1.626       .  S
C178        C541   1.599       .  S
C178        C658   1.579       .  S
C178       C1109   1.605       .  S
C179        C259   1.612       .  S
C179        C528   1.581       .  S
C179        C651   1.590       .  S
C179       C1924   1.629       .  S
C180        C518   1.600       .  S
C180        C638   1.553       .  S
C180       C1858   1.610       .  S
C180       C1074   1.629       .  S
O181        C196   1.251       .  A
O181      Al1821   1.857       .  S
C182        O192   1.248       .  A
C182        O183   1.264       .  A
C182        C531   1.490       .  S
O183       Al185   1.929       .  S
O184        C186   1.243       .  A
O184      Al1001   1.823   1_545  S
Al185       O193   1.803       .  S
Al185      O1000   1.816       .  S
Al185      O1011   1.936       .  S
Al185      O1010   1.786       .  S
C186        O199   1.265       .  A
C186        C521   1.482       .  S
O187        C197   1.252       .  A
O187       Al189   1.826       .  S
O188        C201   1.248   1_565  A
O188      Al1014   1.863       .  S
Al189       O202   1.913       .  S
Al189      O1813   1.858       .  S
Al189      O1831   1.946   1_455  S
Al189      O1826   1.785       .  S
O190        C197   1.275       .  A
O190      Al1014   1.967   1_545  S
O191        C200   1.267       .  A
O191      Al1830   1.936       .  S
O192      Al1830   1.844       .  S
O193        C200   1.241       .  A
O194      Al1001   1.783   1_545  S
O194      Al1821   1.785       .  S
O194      Al2646   1.787   1_545  S
O195        C196   1.270       .  A
O195      Al1001   1.941   1_545  S
C196        C668   1.460       .  S
C197        C538   1.491       .  S
Al198      O1004   1.865       .  S
Al198      O1006   1.976       .  S
Al198      O1823   1.936   1_455  S
Al198      O1824   1.844   1_455  S
Al198      O2642   1.786   1_455  S
O199      Al1821   1.946       .  S
C200        C688   1.462       .  S
C201        O202   1.260       .  A
C201        C711   1.480       .  S
N203        C208   1.358       .  A
N203        C207   1.369       .  A
N203        H235   1.040       .  S
N204        C211   1.353       .  A
N204        C212   1.367       .  A
N205        C210   1.355       .  A
N205        C209   1.360   1_455  A
N205        H236   1.038       .  S
N206        C213   1.364       .  A
N206        C214   1.362       .  A
C207        C215   1.386       .  A
C207        C223   1.457       .  A
C208        C224   1.460       .  A
C208        C216   1.395       .  A
C209        C226   1.432       .  A
C209       C1849   1.369       .  A
C210        C225   1.452       .  A
C210        C218   1.395   1_455  A
C211        C223   1.429       .  A
C211        C219   1.392       .  A
C212        C226   1.433   1_455  A
C212        C220   1.386       .  A
C213        C221   1.386       .  A
C213        C224   1.440       .  A
C214        C222   1.388       .  A
C214        C225   1.440       .  A
C215        C216   1.388       .  A
C215        H227   1.080       .  S
C216        H228   1.068       .  S
C217       C1841   1.369       .  A
C217       C1850   1.369       .  A
C217        H229   1.054       .  S
C218       C1849   1.369       .  A
C218       H1862   1.072       .  S
C219        C220   1.359       .  A
C219        H231   1.082       .  S
C220        H232   1.083       .  S
C221        C222   1.384       .  A
C221        H233   1.082       .  S
C222        H234   1.082       .  S
C226       C1812   1.610       .  S
H230       C1850   1.072       .  S
N237        C242   1.368       .  A
N237        C241   1.364       .  A
N237        H269   1.039       .  S
N238        C245   1.360       .  A
N238        C246   1.363       .  A
N239        C244   1.366       .  A
N239        C243   1.372       .  A
N239        H270   1.039       .  S
N240        C247   1.372       .  A
N240        C248   1.369       .  A
C241        C257   1.426       .  A
C241       C1065   1.366       .  A
C242        C258   1.477       .  A
C242       C1066   1.409       .  A
C243        C251   1.383       .  A
C243        C260   1.449       .  A
C244        C259   1.442       .  A
C244        C252   1.378       .  A
C245        C257   1.433       .  A
C245        C253   1.386       .  A
C246        C260   1.431       .  A
C246        C254   1.387       .  A
C247        C255   1.372       .  A
C247        C258   1.446       .  A
C248        C256   1.377       .  A
C248        C259   1.450       .  A
C249        C250   1.367       .  A
C249       C1057   1.367       .  A
C249        H261   1.081       .  S
C250       C1058   1.409       .  A
C250        H262   1.070       .  S
C251        C252   1.369       .  A
C251        H263   1.066       .  S
C252        H264   1.063       .  S
C253        C254   1.379       .  A
C253        H265   1.082       .  S
C254        H266   1.082       .  S
C255        C256   1.326       .  A
C255       H1083   1.057       .  S
C256        H268   1.067       .  S
C258        C996   1.628       .  S
H267       C1071   1.055       .  S
N271        C276   1.375   1_455  A
N271        C275   1.366       .  A
N271        H303   1.041       .  S
N272        C279   1.375       .  A
N272        C280   1.374       .  A
N273        C278   1.371       .  A
N273        C277   1.365       .  A
N273        H304   1.045       .  S
N274        C281   1.360       .  A
N274        C282   1.362       .  A
C275        C283   1.374   1_455  A
C275        C291   1.447       .  A
C276        C292   1.451       .  A
C276       C1916   1.384       .  A
C277        C294   1.448       .  A
C277       C1101   1.390       .  A
C278        C293   1.430       .  A
C278       C1102   1.378       .  A
C279        C291   1.448       .  A
C279        C287   1.374       .  A
C280        C294   1.447       .  A
C280        C288   1.375       .  A
C281        C289   1.383       .  A
C281        C292   1.427   1_455  A
C282        C290   1.391       .  A
C282        C293   1.433       .  A
C283       C1916   1.366       .  A
C283       H1927   1.050       .  S
C284       C1908   1.384       .  A
C284       C1915   1.366       .  A
C284        H296   1.072       .  S
C285        C286   1.379       .  A
C285       C1093   1.393       .  A
C285        H297   1.077       .  S
C286       C1094   1.378       .  A
C286        H298   1.081       .  S
C287        C288   1.321       .  A
C287        H299   1.063       .  S
C288        H300   1.063       .  S
C289        C290   1.382       .  A
C289        H301   1.082   1_455  S
C290       H1118   1.081       .  S
C292       C1811   1.629       .  S
C293        C994   1.605       .  S
H295       C1915   1.050       .  S
H302       C1106   1.081   1_545  S
C305        C378   1.639       .  S
C305        C511   1.600       .  S
C305        C731   1.586       .  S
C305       C1260   1.645       .  S
C306        C410   1.622       .  S
C306        C498   1.593       .  S
C306        C741   1.589       .  S
C306       C2075   1.649       .  S
C307        C488   1.578       .  S
C307        C751   1.581       .  S
C307       C2007   1.629       .  S
C307       C1227   1.650       .  S
O308       C1139   1.260       .  A
O308       Al316   1.897   1_565  S
C309        O310   1.265       .  A
C309       O1135   1.265       .  A
C309        C508   1.492       .  S
O310       Al312   1.926       .  S
O311       C1945   1.258       .  A
O311       Al312   1.863       .  S
Al312       O320   1.834       .  S
Al312      O1954   1.926       .  S
Al312      O1137   1.770       .  S
C313       O1943   1.259   1_455  A
C313       O1142   1.261       .  A
C313        C491   1.463       .  S
O314        C324   1.265       .  A
O314       Al316   1.887       .  S
O315       C1960   1.254       .  A
O315       Al325   1.890       .  S
Al316       O329   1.887       .  S
Al316       O326   1.916   1_545  S
Al316      O1953   1.783   1_445  S
O317        C324   1.272       .  A
O317      Al1957   1.948   1_455  S
O318       C1143   1.262       .  A
O318       Al325   1.910   1_565  S
O319       C1125   1.264   1_545  A
O319       Al325   1.902       .  S
O320        C327   1.252       .  A
O321       Al325   1.776   1_565  S
O321      Al1128   1.771       .  S
O321      Al1948   1.783   1_565  S
O322        C323   1.267   1_655  A
O322      Al1944   1.928       .  S
C323       O1124   1.260       .  A
C323        C801   1.486       .  S
C324        C501   1.493       .  S
Al325      O1949   1.949       .  S
O326       C1129   1.261       .  A
C327       O1134   1.260       .  A
C327        C781   1.458       .  S
C328        O329   1.255       .  A
C328       O1947   1.254   1_455  A
C328        C761   1.466       .  S
C330        C412   1.611       .  S
C330        C445   1.631       .  S
C330        C478   1.587       .  S
C330       C1364   1.587       .  S
C331        C376   1.621       .  S
C331        C446   1.615       .  S
C331        C468   1.589       .  S
C331       C2200   1.583       .  S
C332        C377   1.643       .  S
C332        C409   1.625       .  S
C332        C458   1.577       .  S
C332        C561   1.580       .  S
O333        C348   1.251       .  A
O333       Al341   1.836       .  S
C334        O344   1.250       .  A
C334        O335   1.264       .  A
C334        C461   1.480       .  S
O335       Al337   1.926       .  S
O336        C338   1.254       .  A
O336       Al337   1.856       .  S
Al337       O345   1.858       .  S
Al337       O347   1.924       .  S
Al337       O346   1.785       .  S
C338        O351   1.266       .  A
C338        C471   1.493       .  S
O339        C349   1.250       .  A
O339       Al341   1.827       .  S
O340        C353   1.256       .  A
O340       Al350   1.893       .  S
Al341       O354   1.920       .  S
Al341       O351   1.943       .  S
Al341       O346   1.784       .  S
O342        C349   1.270       .  A
O342       Al350   1.950       .  S
O343        C352   1.266       .  A
O343       Al350   1.917       .  S
O344       Al350   1.850       .  S
O345        C352   1.253       .  A
O346       Al350   1.783       .  S
O347        C348   1.264       .  A
C348        C618   1.471       .  S
C349        C481   1.497       .  S
C352        C601   1.475       .  S
C353        O354   1.263       .  A
C353        C581   1.495       .  S
N355        C360   1.366       .  A
N355        C359   1.361       .  A
N355        H387   1.041       .  S
N356        C363   1.374       .  A
N356        C364   1.373       .  A
N357        C362   1.370       .  A
N357        C361   1.375       .  A
N357        H388   1.045       .  S
N358        C365   1.378       .  A
N358        C366   1.370       .  A
C359        C375   1.420       .  A
C359       C1999   1.362       .  A
C360        C376   1.441       .  A
C360        C368   1.387       .  A
C361        C369   1.377       .  A
C361        C378   1.439       .  A
C362        C377   1.458       .  A
C362        C370   1.395       .  A
C363        C375   1.454       .  A
C363        C371   1.377       .  A
C364        C378   1.436       .  A
C364        C372   1.361       .  A
C365        C373   1.376       .  A
C365        C376   1.452       .  A
C366        C374   1.377       .  A
C366        C377   1.450       .  A
C367       C1991   1.362       .  A
C367       C2000   1.358       .  A
C367        H379   1.051       .  S
C368       C1999   1.358       .  A
C368        H380   1.073       .  S
C369        C370   1.385       .  A
C369        H381   1.081       .  S
C370        H382   1.077       .  S
C371        C372   1.324       .  A
C371        H383   1.064       .  S
C372        H384   1.048       .  S
C373        C374   1.326       .  A
C373        H385   1.071       .  S
C374        H386   1.061       .  S
C375       C1939   1.629       .  S
N389        C394   1.354       .  A
N389        C393   1.367       .  A
N389        H421   1.033       .  S
N390        C397   1.367       .  A
N390        C398   1.358       .  A
N391        C396   1.366   1_545  A
N391        C395   1.369       .  A
N391        H422   1.031       .  S
N392        C399   1.381       .  A
N392        C400   1.377       .  A
C393        C401   1.391       .  A
C393        C409   1.449       .  A
C394        C410   1.430       .  A
C394        C402   1.380       .  A
C395        C403   1.367   1_545  A
C395        C412   1.435       .  A
C396        C411   1.472       .  A
C396        C404   1.406       .  A
C397        C409   1.436       .  A
C397        C405   1.385       .  A
C398        C412   1.436       .  A
C398        C406   1.390       .  A
C399        C407   1.360       .  A
C399        C410   1.448       .  A
C400        C408   1.359       .  A
C400        C411   1.461   1_545  A
C401        C402   1.370       .  A
C401        H413   1.077       .  S
C402        H414   1.079       .  S
C403        C404   1.366       .  A
C403        H415   1.067       .  S
C404       H1232   1.072       .  S
C405        C406   1.378       .  A
C405        H417   1.082       .  S
C406        H418   1.083       .  S
C407        C408   1.335       .  A
C407        H419   1.048       .  S
C408        H420   1.052       .  S
C411       C1123   1.648       .  S
H416       C1220   1.073       .  S
N423        C428   1.391       .  A
N423        C427   1.385       .  A
N423        H455   1.044       .  S
N424        C431   1.356       .  A
N424        C432   1.369       .  A
N425        C430   1.358       .  A
N425        C429   1.342       .  A
N425        H456   1.044       .  S
N426        C433   1.365   1_545  A
N426        C434   1.371       .  A
C427        C435   1.365       .  A
C427        C443   1.459       .  A
C428        C444   1.477   1_545  A
C428        C436   1.376       .  A
C429        C437   1.387       .  A
C429        C446   1.412       .  A
C430        C445   1.419       .  A
C430        C438   1.383       .  A
C431        C443   1.432       .  A
C431       C2071   1.390       .  A
C432        C446   1.417       .  A
C432        C440   1.379       .  A
C433        C441   1.385       .  A
C433        C444   1.444       .  A
C434        C442   1.389   1_545  A
C434        C445   1.455       .  A
C435        C436   1.334       .  A
C435        H447   1.054       .  S
C436        H448   1.046       .  S
C437        C438   1.385       .  A
C437        H449   1.082       .  S
C438        H450   1.075       .  S
C439       C2063   1.390       .  A
C439       C2072   1.381   1_455  A
C439        H451   1.078       .  S
C440       C2071   1.381       .  A
C440        H452   1.081       .  S
C441        C442   1.369       .  A
C441       H1269   1.077       .  S
C442        H454   1.072       .  S
C443       C1938   1.650       .  S
C444       C1121   1.647       .  S
H453       C1257   1.077       .  S
C457        C458   1.426       .  A
C457        C462   1.394       .  A
C457        F464   1.348       .  S
C458        C459   1.421       .  A
C459        C460   1.393       .  A
C459        F466   1.351       .  S
C460        C461   1.402       .  A
C460        F465   1.356       .  S
C461        C462   1.396       .  A
C462        F463   1.357       .  S
C467        C468   1.427       .  A
C467        C472   1.412       .  A
C467        F474   1.355       .  S
C468        C469   1.434       .  A
C469        C470   1.384       .  A
C469        F476   1.354       .  S
C470        C471   1.399       .  A
C470        F475   1.357       .  S
C471        C472   1.405       .  A
C472        F473   1.357       .  S
C477        C478   1.438       .  A
C477        C482   1.416       .  A
C477        F484   1.353       .  S
C478        C479   1.415       .  A
C479        C480   1.385       .  A
C479        F486   1.328       .  S
C480        C481   1.399       .  A
C480        F485   1.356       .  S
C481        C482   1.400       .  A
C482        F483   1.355       .  S
C487        C488   1.441       .  A
C487        C492   1.385       .  A
C487       F2126   1.357   1_455  S
C488        C489   1.425       .  A
C489        C490   1.398       .  A
C489        F496   1.355       .  S
C490        C491   1.397       .  A
C490        F495   1.355       .  S
C491        C492   1.389       .  A
C492       F2125   1.359   1_455  S
F493       C2124   1.359       .  S
F494       C2119   1.357       .  S
C497        C498   1.430       .  A
C497        C502   1.408       .  A
C497        F504   1.352       .  S
C498        C499   1.428       .  A
C499        C500   1.392       .  A
C499        F506   1.354       .  S
C500        C501   1.399       .  A
C500        F505   1.351       .  S
C501        C502   1.404       .  A
C502       F2135   1.358       .  S
F503       C2134   1.358       .  S
C507        C508   1.405       .  A
C507        C512   1.403       .  A
C507        F514   1.358       .  S
C508        C509   1.402       .  A
C509        C510   1.404       .  A
C509       F1332   1.358       .  S
C510        C511   1.434       .  A
C510        F515   1.358       .  S
C511        C512   1.430       .  A
C512        F513   1.357       .  S
F516       C1325   1.358   1_545  S
C517        C518   1.425       .  A
C517        C522   1.391       .  A
C517        F524   1.353   1_545  S
C518        C519   1.439       .  A
C519        C520   1.398       .  A
C519        F526   1.346       .  S
C520        C521   1.391       .  A
C520        F525   1.358       .  S
C521        C522   1.405       .  A
C522        F523   1.355   1_545  S
C527        C528   1.416       .  A
C527        C532   1.396       .  A
C527        F534   1.353       .  S
C528        C529   1.434       .  A
C529        C530   1.401       .  A
C529        F536   1.356       .  S
C530        C531   1.398       .  A
C530        F535   1.356       .  S
C531        C532   1.408       .  A
C532       F2165   1.356       .  S
F533       C2164   1.356   1_455  S
C537        C538   1.398       .  A
C537        C542   1.413       .  A
C537        F544   1.354   1_545  S
C538        C539   1.397       .  A
C539        C540   1.385       .  A
C539        F546   1.361       .  S
C540        C541   1.429       .  A
C540        F545   1.340       .  S
C541        C542   1.441       .  A
C542        F543   1.353   1_545  S
C547        C548   1.430       .  A
C547        C552   1.397       .  A
C547        F554   1.352       .  S
C548       C1146   1.585       .  S
C548        C549   1.438       .  A
C549        C550   1.392       .  A
C549       F1372   1.354       .  S
C550        C551   1.393       .  A
C550        F555   1.358       .  S
C551        C552   1.405       .  A
C552        F553   1.359       .  S
F556       C1365   1.355       .  S
C557        C558   1.397       .  A
C557        C562   1.384       .  A
C557        F564   1.359       .  S
C558        C559   1.415       .  A
C559        C560   1.408       .  A
C559        F566   1.357       .  S
C560        C561   1.400       .  A
C560        F565   1.356       .  S
C561        C562   1.434       .  A
C562        F563   1.354       .  S
C567        C568   1.440       .  A
C567        C572   1.389       .  A
C567        F574   1.353       .  S
C568       C1963   1.583   1_455  S
C568        C569   1.428       .  A
C569        C570   1.399       .  A
C569        F576   1.350       .  S
C570        C571   1.406       .  A
C570        F575   1.358       .  S
C571        C572   1.392       .  A
C572        F573   1.359       .  S
C577        C578   1.426       .  A
C577        C582   1.404       .  A
C577        F584   1.355       .  S
C578        C971   1.589   1_545  S
C578        C579   1.397       .  A
C579        C580   1.405       .  A
C579        F586   1.357       .  S
C580        C581   1.413       .  A
C580        F585   1.355       .  S
C581        C582   1.409       .  A
C582        F583   1.357       .  S
C587        C588   1.431       .  A
C587        C592   1.398       .  A
C587        F594   1.350       .  S
C588        C589   1.419       .  A
C589        C590   1.395       .  A
C589        F596   1.353       .  S
C590        C591   1.405       .  A
C590        F595   1.356       .  S
C591        C592   1.397       .  A
C592        F593   1.358       .  S
C597        C598   1.438       .  A
C597        C602   1.387       .  A
C597        F604   1.351       .  S
C598        C599   1.434       .  A
C599        C600   1.394       .  A
C599        F606   1.353       .  S
C600        C601   1.400       .  A
C600        F605   1.358       .  S
C601        C602   1.391       .  A
C602        F603   1.358       .  S
C607        C608   1.434       .  A
C607        C612   1.401       .  A
C607        F614   1.351       .  S
C608        C609   1.426       .  A
C609        C610   1.391       .  A
C609        F616   1.351       .  S
C610        C611   1.400       .  A
C610        F615   1.357       .  S
C611        C612   1.392       .  A
C612        F613   1.354       .  S
C617        C618   1.394       .  A
C617        C622   1.378       .  A
C617        F624   1.360       .  S
C618        C619   1.399       .  A
C619        C620   1.402       .  A
C619        F626   1.358       .  S
C620        C621   1.433       .  A
C620        F625   1.353       .  S
C621       C1785   1.573       .  S
C621        C622   1.435       .  A
C622        F623   1.353       .  S
C627        C628   1.402       .  A
C627        C632   1.407       .  A
C627        F634   1.355       .  S
C628        C629   1.401       .  A
C629        C630   1.388       .  A
C629        F636   1.359       .  S
C630        C631   1.427       .  A
C630        F635   1.355       .  S
C631        C632   1.427       .  A
C632        F633   1.353       .  S
C637        C638   1.425       .  A
C637        C642   1.399       .  A
C637        F644   1.354       .  S
C638        C639   1.434       .  A
C639        C640   1.370       .  A
C639        F646   1.354       .  S
C640        C641   1.388       .  A
C640        F645   1.360       .  S
C641        C642   1.398       .  A
C642        F643   1.355       .  S
C647        C648   1.401       .  A
C647        C652   1.390       .  A
C647        F654   1.358       .  S
C648        C649   1.398       .  A
C649        C650   1.407       .  A
C649        F656   1.356       .  S
C650        C651   1.441       .  A
C650        F655   1.352       .  S
C651        C652   1.433       .  A
C652        F653   1.353       .  S
C657        C658   1.430       .  A
C657        C662   1.388       .  A
C657        F664   1.351       .  S
C658        C659   1.425       .  A
C659        C660   1.406       .  A
C659        F666   1.349       .  S
C660        C661   1.403       .  A
C660        F665   1.357       .  S
C661        C662   1.398       .  A
C662        F663   1.357       .  S
C667        C668   1.384       .  A
C667        C672   1.380       .  A
C667        F674   1.360       .  S
C668        C669   1.408       .  A
C669        C670   1.414       .  A
C669        F676   1.357       .  S
C670        C671   1.409       .  A
C670        F675   1.355   1_554  S
C671        C672   1.434       .  A
C672        F673   1.350       .  S
C677        C678   1.394       .  A
C677        C682   1.401       .  A
C677        F684   1.358       .  S
C678        C679   1.397       .  A
C679        C680   1.384       .  A
C679        F686   1.355       .  S
C680        C681   1.387       .  A
C680        F685   1.309       .  S
C681        C682   1.433       .  A
C682        F683   1.344       .  S
C687        C688   1.409       .  A
C687        C692   1.392       .  A
C687        F694   1.359       .  S
C688        C689   1.403       .  A
C689        C690   1.402       .  A
C689        F696   1.354       .  S
C690        C691   1.396       .  A
C690        F695   1.358   1_554  S
C691        C692   1.425       .  A
C692        F693   1.355       .  S
C697        C698   1.401       .  A
C697        C702   1.396       .  A
C697        F704   1.355       .  S
C698        C699   1.394       .  A
C699        C700   1.393       .  A
C699        F706   1.358       .  S
C700        C701   1.427       .  A
C700        F705   1.344       .  S
C701        C702   1.427       .  A
C702        F703   1.353       .  S
C707        C708   1.430       .  A
C707        C712   1.397       .  A
C707        F714   1.347       .  S
C708        C709   1.440       .  A
C709        C710   1.394       .  A
C709        F716   1.353       .  S
C710        C711   1.395       .  A
C710        F715   1.358       .  S
C711        C712   1.400       .  A
C712        F713   1.359   1_545  S
C717        C718   1.411       .  A
C717        C722   1.401       .  A
C717        F724   1.358       .  S
C718        C719   1.396       .  A
C719        C720   1.402       .  A
C719        F726   1.353       .  S
C720        C721   1.434       .  A
C720        F725   1.354       .  S
C721        C722   1.422       .  A
C722        F723   1.354       .  S
C727        C728   1.405       .  A
C727        C732   1.410       .  A
C727        F734   1.354       .  S
C728        C729   1.411       .  A
C729        C730   1.403       .  A
C729        F736   1.357       .  S
C730        C731   1.420       .  A
C730        F735   1.348       .  S
C731        C732   1.430       .  A
C732        F733   1.354       .  S
C737        C738   1.401       .  A
C737        C742   1.402       .  A
C737        F744   1.357       .  S
C738        C739   1.405       .  A
C739        C740   1.392       .  A
C739        F746   1.349       .  S
C740        C741   1.399       .  A
C740        F745   1.356       .  S
C741        C742   1.430       .  A
C742        F743   1.353       .  S
C747        C748   1.395       .  A
C747        C752   1.401       .  A
C747        F754   1.359       .  S
C748        C749   1.397       .  A
C749        C750   1.372       .  A
C749        F756   1.356       .  S
C750        C751   1.435       .  A
C750        F755   1.354       .  S
C751        C752   1.437       .  A
C752        F753   1.348       .  S
C757        C758   1.424       .  A
C757        C762   1.385       .  A
C757        F764   1.348       .  S
C758        C759   1.404       .  A
C759        C760   1.402       .  A
C759        F766   1.355       .  S
C760        C761   1.407       .  A
C760        F765   1.351   1_455  S
C761        C762   1.396       .  A
C762        F763   1.358       .  S
C767        C768   1.396       .  A
C767        C772   1.379       .  A
C767        F774   1.355       .  S
C768        C769   1.408       .  A
C769        C770   1.419       .  A
C769        F776   1.357       .  S
C770        C771   1.435       .  A
C770        F775   1.348       .  S
C771        C772   1.360       .  A
C772        F773   1.326       .  S
C777        C778   1.421       .  A
C777        C782   1.403       .  A
C777        F784   1.352       .  S
C778        C779   1.428       .  A
C779        C780   1.372       .  A
C779        F786   1.351       .  S
C780        C781   1.391       .  A
C780        F785   1.360       .  S
C781        C782   1.403       .  A
C782       F1599   1.358       .  S
F783       C1598   1.358   1_545  S
C787        C788   1.406       .  A
C787        C792   1.405       .  A
C787        F794   1.350       .  S
C788        C789   1.393       .  A
C789        C790   1.399       .  A
C789        F796   1.358       .  S
C790        C791   1.431       .  A
C790        F795   1.355       .  S
C791        C792   1.391       .  A
C792        F793   1.344       .  S
C797        C798   1.420       .  A
C797        C802   1.397       .  A
C797        F804   1.351   1_455  S
C798        C799   1.397       .  A
C799        C800   1.410       .  A
C799        F806   1.357       .  S
C800        C801   1.414       .  A
C800        F805   1.357       .  S
C801        C802   1.405       .  A
C802        F803   1.358   1_455  S
C807        C808   1.425       .  A
C807        C812   1.408       .  A
C807        F814   1.353       .  S
C808        C809   1.430       .  A
C809        C810   1.388       .  A
C809        F816   1.346       .  S
C810        C811   1.397       .  A
C810        F815   1.360       .  S
C811        C812   1.407       .  A
C812        F813   1.358       .  S
C817        C865   1.630       .  S
C817        C922   1.585       .  S
C817       C1614   1.591       .  S
C817       C1624   1.571       .  S
C818        C862   1.570       .  S
C818        C956   1.616       .  S
C818       C1594   1.576       .  S
C818       C1607   1.584       .  S
C819        C923   1.601       .  S
C819        C957   1.642       .  S
C819       C1574   1.575       .  S
C819       C1587   1.577       .  S
O820        C835   1.244       .  A
O820       Al828   1.808       .  S
C821        O831   1.253       .  A
C821        O822   1.263       .  A
C821       C1584   1.485       .  S
O822       Al824   1.943       .  S
O823        C825   1.259       .  A
O823       Al824   1.864       .  S
Al824       O832   1.853       .  S
Al824       O834   1.937       .  S
Al824       O833   1.794       .  S
C825        O838   1.265       .  A
C825       C1627   1.484       .  S
O826        C836   1.248       .  A
O826       Al828   1.852       .  S
O827        C840   1.249       .  A
O827       Al837   1.867       .  S
Al828       O841   1.927       .  S
Al828       O838   1.922       .  S
Al828       O833   1.783       .  S
O829        C836   1.273       .  A
O829       Al837   1.958       .  S
O830        C839   1.266       .  A
O830       Al837   1.918       .  S
O831       Al837   1.840       .  S
O832        C839   1.256       .  A
O833       Al837   1.777       .  S
O834        C835   1.263       .  A
C835       C1564   1.470       .  S
C836       C1604   1.475       .  S
C839       C1554   1.469       .  S
C840        O841   1.265       .  A
C840       C1544   1.497       .  S
N842        C847   1.358       .  A
N842        H874   1.043       .  S
N843        C850   1.357       .  A
N843        C851   1.360       .  A
N844        C849   1.360       .  A
N844        H875   1.042       .  S
N845        C852   1.361       .  A
N845        C853   1.358       .  A
C846        C854   1.376       .  A
C846        C862   1.408       .  A
C847        C863   1.434       .  A
C847        C855   1.391       .  A
C848        C856   1.396   1_565  A
C848        C865   1.460       .  A
C849        C864   1.430       .  A
C849        C857   1.380       .  A
C850        C862   1.419       .  A
C850        C858   1.380       .  A
C851        C865   1.417       .  A
C851        C859   1.388       .  A
C852        C860   1.385       .  A
C852        C863   1.425       .  A
C853        C861   1.387       .  A
C853        C864   1.428       .  A
C854        H866   1.079       .  S
C855        H867   1.068   1_556  S
C856        H868   1.079       .  S
C857        H869   1.082       .  S
C858        C859   1.375       .  A
C858        H870   1.082       .  S
C859        H871   1.078       .  S
C860        C861   1.383       .  A
C860        H872   1.082       .  S
C861        H873   1.082       .  S
C863        C878   1.581       .  S
C864        C876   1.613       .  S
C876        C958   1.624       .  S
C876       C1524   1.585   1_556  S
C876       C1537   1.588   1_556  S
C877        C921   1.652       .  S
C877        C955   1.646       .  S
C877       C1507   1.578   1_556  S
C877       C1517   1.585   1_556  S
C878        C924   1.613       .  S
C878       C1487   1.570   1_556  S
C878       C1497   1.584   1_556  S
O879        C894   1.263       .  A
O879       Al887   1.914       .  S
C880        O890   1.278       .  A
C880        O881   1.251       .  A
C880       C1534   1.492       .  S
O881       Al883   1.842       .  S
O882        C884   1.263       .  A
O882       Al883   1.923       .  S
Al883       O891   1.905       .  S
Al883       O893   1.843       .  S
Al883       O892   1.791       .  S
C884        O897   1.257       .  A
C884       C1494   1.469       .  S
O885        C895   1.259       .  A
O885       Al887   1.910       .  S
O886        C899   1.277       .  A
O886       Al896   1.971       .  S
Al887       O900   1.847       .  S
Al887       O897   1.864       .  S
Al887       O892   1.780       .  S
O888        C895   1.250       .  A
O888       Al896   1.860       .  S
O889        C898   1.250       .  A
O889       Al896   1.854       .  S
O890       Al896   1.963       .  S
O891        C898   1.257       .  A
O892       Al896   1.767       .  S
O893        C894   1.253       .  A
C894       C1457   1.453       .  S
C895       C1514   1.477       .  S
C898       C1477   1.479       .  S
C899        O900   1.255       .  A
C899       C1464   1.494       .  S
N901       C2538   1.355       .  A
N901        C905   1.357       .  A
N901        H933   1.044       .  S
N902        C909   1.364       .  A
N902        C910   1.364       .  A
N903       C2540   1.365       .  A
N903        C907   1.362       .  A
N903        H934   1.035       .  S
N904        C911   1.362       .  A
N904        C912   1.360       .  A
C905        C913   1.403       .  A
C905        C921   1.428       .  A
C906       N2533   1.355   1_455  A
C906        C922   1.406       .  A
C906        C914   1.367       .  A
C907        C915   1.377       .  A
C907        C924   1.441       .  A
C908       N2535   1.365   1_455  A
C908        C923   1.460       .  A
C908        C916   1.392   1_455  A
C909        C921   1.449       .  A
C909        C917   1.395   1_556  A
C910        C924   1.421       .  A
C910        C918   1.379   1_556  A
C911        C919   1.393       .  A
C911        C922   1.447       .  A
C912        C920   1.380       .  A
C912        C923   1.434       .  A
C913       C2546   1.369       .  A
C913        H925   1.074   1_556  S
C914       C2545   1.369       .  A
C914        H926   1.080       .  S
C915       C2548   1.387       .  A
C915        H927   1.079       .  S
C916       C2547   1.387       .  A
C916        H928   1.068       .  S
C917        C918   1.365       .  A
C917        H929   1.079       .  S
C918        H930   1.081       .  S
C919        C920   1.381       .  A
C919        H931   1.080       .  S
C920        H932   1.082       .  S
N935        C940   1.369       .  A
N935        C939   1.371       .  A
N935        H967   1.037       .  S
N936        C943   1.374       .  A
N936        C944   1.375       .  A
N937        C942   1.365       .  A
N937        C941   1.364       .  A
N937        H968   1.036       .  S
N938        C945   1.367       .  A
N938        C946   1.367       .  A
C939        C947   1.380       .  A
C939        C955   1.451       .  A
C940        C956   1.460       .  A
C940        C948   1.392       .  A
C941        C949   1.392       .  A
C941        C958   1.451       .  A
C942        C957   1.441       .  A
C942        C950   1.378       .  A
C943        C955   1.441       .  A
C943        C951   1.343       .  A
C944        C958   1.458       .  A
C944        C952   1.368       .  A
C945        C953   1.381       .  A
C945        C956   1.426       .  A
C946        C954   1.388       .  A
C946        C957   1.436       .  A
C947        C948   1.364       .  A
C947        H959   1.078       .  S
C948        H960   1.076       .  S
C949        C950   1.373       .  A
C949        H961   1.077       .  S
C950        H962   1.075       .  S
C951        C952   1.336       .  A
C951        H963   1.042       .  S
C952        H964   1.055       .  S
C953        C954   1.364       .  A
C953        H965   1.079       .  S
C954        H966   1.076       .  S
C969       C1041   1.607       .  S
C969       C1107   1.627       .  S
C969       C3069   1.575   1_455  S
C969       C1447   1.584       .  S
C970       C1040   1.609       .  S
C970       C1076   1.614       .  S
C970       C1414   1.581       .  S
C970       C1424   1.575       .  S
C971       C1073   1.626       .  S
C971       C1110   1.636       .  S
C971       C1404   1.579       .  S
O972        C987   1.250       .  A
O972       Al980   1.846       .  S
C973        O983   1.252       .  A
C973        O974   1.270       .  A
C973       C1407   1.483       .  S
O974       Al976   1.943       .  S
O975        C977   1.253       .  A
O975       Al976   1.851       .  S
Al976       O984   1.865       .  S
Al976       O986   1.930       .  S
Al976       O985   1.770       .  S
C977        O990   1.266       .  A
C977       C1444   1.484       .  S
O978        C988   1.248       .  A
O978       Al980   1.826       .  S
O979        C992   1.252       .  A
O979       Al989   1.874       .  S
Al980       O993   1.912       .  S
Al980       O990   1.938       .  S
Al980       O985   1.783       .  S
O981        C988   1.272       .  A
O981       Al989   1.953       .  S
O982        C991   1.267       .  A
O982       Al989   1.928       .  S
O983       Al989   1.849       .  S
O984        C991   1.254       .  A
O985       Al989   1.780       .  S
O986        C987   1.269       .  A
C987       C1387   1.477       .  S
C988       C1427   1.481       .  S
C991       C1367   1.485       .  S
C992        O993   1.266       .  A
C992       C1374   1.476       .  S
C994       C1039   1.628       .  S
C994       C1357   1.603       .  S
C994       C1474   1.577       .  S
C995       C1075   1.619       .  S
C995       C2740   1.629       .  S
C995       C1344   1.584       .  S
C995       C1467   1.591       .  S
C996       C2674   1.609       .  S
C996       C1334   1.597       .  S
C996       C1454   1.556       .  S
O997       C1012   1.253       .  A
O997      Al2637   1.862       .  S
C998       O1008   1.248       .  A
C998        O999   1.265       .  A
C998       C1347   1.490       .  S
O999      Al1001   1.932       .  S
O1000      C1002   1.241       .  A
Al1001     O1009   1.801       .  S
C1002      O1015   1.263       .  A
C1002      C1337   1.482       .  S
O1003      C1013   1.253       .  A
O1003     Al1005   1.830       .  S
O1004      C1017   1.246       .  A
Al1005     O2629   1.862       .  S
Al1005     O1018   1.910       .  S
Al1005     O2647   1.944   1_455  S
Al1005     O2642   1.789   1_455  S
O1006      C1013   1.277       .  A
O1007      C1016   1.267       .  A
O1007     Al2646   1.935       .  S
O1008     Al2646   1.846       .  S
O1009      C1016   1.242       .  A
O1010     Al2637   1.789       .  S
O1010     Al1830   1.786       .  S
O1011      C1012   1.270       .  A
C1012      C1484   1.459       .  S
C1013      C1354   1.496       .  S
Al1014     O2639   1.935   1_455  S
Al1014     O2640   1.846   1_455  S
Al1014     O1826   1.788   1_565  S
O1015     Al2637   1.944       .  S
C1016      C1504   1.458       .  S
C1017      O1018   1.258       .  A
C1017      C1527   1.480       .  S
N1019      C1024   1.360       .  A
N1019      C1023   1.370       .  A
N1019      H1051   1.040       .  S
N1020      C1027   1.353       .  A
N1020      C1028   1.368       .  A
N1021      C1026   1.355       .  A
N1021      C1025   1.361   1_455  A
N1021      H1052   1.038       .  S
N1022      C1029   1.364       .  A
N1022      C1030   1.362       .  A
C1023      C1031   1.386       .  A
C1023      C1039   1.460       .  A
C1024      C1040   1.464       .  A
C1024      C1032   1.397       .  A
C1025      C2665   1.368       .  A
C1025      C1042   1.432       .  A
C1026      C1041   1.452       .  A
C1026      C1034   1.396   1_455  A
C1027      C1039   1.428       .  A
C1027      C1035   1.391       .  A
C1028      C1042   1.432   1_455  A
C1028      C1036   1.387       .  A
C1029      C1037   1.386       .  A
C1029      C1040   1.438       .  A
C1030      C1038   1.388       .  A
C1030      C1041   1.441       .  A
C1031      C1032   1.390       .  A
C1031      H1043   1.080       .  S
C1032      H1044   1.069       .  S
C1033      C2657   1.368       .  A
C1033      C2666   1.368       .  A
C1033      H1045   1.054       .  S
C1034      C2665   1.368       .  A
C1034      H2678   1.071       .  S
C1035      C1036   1.359       .  A
C1035      H1047   1.082       .  S
C1036      H1048   1.083       .  S
C1037      C1038   1.384       .  A
C1037      H1049   1.082       .  S
C1038      H1050   1.082       .  S
C1042      C2628   1.609       .  S
H1046      C2666   1.071       .  S
N1053      C1058   1.368   1_565  A
N1053      C1057   1.366   1_565  A
N1053      H1085   1.039       .  S
N1054      C1061   1.364       .  A
N1054      C1062   1.366       .  A
N1055      C1060   1.369       .  A
N1055      C1059   1.373       .  A
N1055      H1086   1.039       .  S
N1056      C1063   1.372   1_565  A
N1056      C1064   1.370       .  A
C1057      C1073   1.429   1_545  A
C1058      C1074   1.478       .  A
C1059      C1067   1.382       .  A
C1059      C1076   1.452       .  A
C1060      C1075   1.450       .  A
C1060      C1068   1.380       .  A
C1061      C1073   1.438       .  A
C1061      C1069   1.386       .  A
C1062      C1076   1.434       .  A
C1062      C1070   1.386       .  A
C1063      C1071   1.372       .  A
C1063      C1074   1.446       .  A
C1064      C1072   1.376       .  A
C1064      C1075   1.448       .  A
C1065      C1066   1.366       .  A
C1065      H1077   1.081       .  S
C1066      H1078   1.070       .  S
C1067      C1068   1.371       .  A
C1067      H1079   1.066       .  S
C1068      H1080   1.063       .  S
C1069      C1070   1.378       .  A
C1069      H1081   1.082       .  S
C1070      H1082   1.082       .  S
C1071      C1072   1.324   1_545  A
C1072      H1084   1.067       .  S
N1087      C1092   1.375   1_455  A
N1087      C1091   1.367       .  A
N1087      H1119   1.040       .  S
N1088      C1095   1.375       .  A
N1088      C1096   1.374       .  A
N1089      C1094   1.371   1_565  A
N1089      C1093   1.365   1_565  A
N1089      H1120   1.044       .  S
N1090      C1097   1.361       .  A
N1090      C1098   1.363   1_565  A
C1091      C1099   1.375   1_455  A
C1091      C1107   1.449       .  A
C1092      C1108   1.449       .  A
C1092      C2732   1.382       .  A
C1093      C1110   1.451   1_545  A
C1094      C1109   1.430       .  A
C1095      C1107   1.451       .  A
C1095      C1103   1.375       .  A
C1096      C1110   1.446       .  A
C1096      C1104   1.374       .  A
C1097      C1105   1.382       .  A
C1097      C1108   1.428   1_455  A
C1098      C1106   1.392   1_545  A
C1098      C1109   1.433       .  A
C1099      C2732   1.367       .  A
C1099      H2743   1.050       .  S
C1100      C2724   1.382       .  A
C1100      C2731   1.367       .  A
C1100      H1112   1.072       .  S
C1101      C1102   1.379       .  A
C1101      H1113   1.078       .  S
C1102      H1114   1.081       .  S
C1103      C1104   1.322       .  A
C1103      H1115   1.062       .  S
C1104      H1116   1.064       .  S
C1105      C1106   1.382       .  A
C1105      H1117   1.082   1_455  S
C1108      C2627   1.629       .  S
H1111      C2731   1.050       .  S
C1121      C1194   1.636       .  S
C1121      C1327   1.599       .  S
C1121      C1547   1.587       .  S
C1122      C1226   1.621       .  S
C1122      C2891   1.648       .  S
C1122      C1314   1.592       .  S
C1122      C1557   1.587       .  S
C1123      C2823   1.631       .  S
C1123      C1304   1.576       .  S
C1123      C1567   1.582       .  S
O1124     Al1132   1.899       .  S
C1125      O1126   1.266       .  A
C1125      C1324   1.493       .  S
O1126     Al1128   1.932       .  S
O1127      C2761   1.258       .  A
O1127     Al1128   1.859       .  S
Al1128     O1136   1.842       .  S
Al1128     O2770   1.926       .  S
C1129      O2759   1.258   1_455  A
C1129      C1307   1.462       .  S
O1130      C1140   1.265       .  A
O1130     Al1132   1.887       .  S
O1131      C2776   1.254       .  A
O1131     Al1141   1.890       .  S
Al1132     O1145   1.888       .  S
Al1132     O1142   1.916       .  S
Al1132     O2769   1.782   1_455  S
O1133      C1140   1.271       .  A
O1133     Al2773   1.942   1_455  S
O1134     Al1141   1.906       .  S
O1135     Al1141   1.906       .  S
O1136      C1143   1.252       .  A
O1137     Al2764   1.782       .  S
O1137     Al1141   1.781       .  S
O1138      C1139   1.268       .  A
O1138     Al2760   1.926   1_455  S
C1139      C1617   1.485       .  S
C1140      C1317   1.490       .  S
Al1141     O2765   1.941       .  S
C1143      C1597   1.462       .  S
C1144      O2763   1.254   1_455  A
C1144      O1145   1.255       .  A
C1144      C1577   1.467       .  S
C1146      C1228   1.610       .  S
C1146      C1261   1.630       .  S
C1146      C1294   1.587       .  S
C1147      C1192   1.618       .  S
C1147      C1262   1.610       .  S
C1147      C1284   1.588       .  S
C1147      C3016   1.576       .  S
C1148      C1193   1.639       .  S
C1148      C1225   1.627       .  S
C1148      C1274   1.580       .  S
C1148      C1377   1.577       .  S
O1149      C1164   1.252       .  A
O1149     Al1157   1.845       .  S
C1150      O1160   1.252       .  A
C1150      O1151   1.265       .  A
C1150      C1277   1.482       .  S
O1151     Al1153   1.933       .  S
O1152      C1154   1.253       .  A
O1152     Al1153   1.846       .  S
Al1153     O1161   1.853       .  S
Al1153     O1163   1.924       .  S
Al1153     O1162   1.782       .  S
C1154      O1167   1.267       .  A
C1154      C1287   1.492       .  S
O1155      C1165   1.249       .  A
O1155     Al1157   1.825       .  S
O1156      C1169   1.257       .  A
O1156     Al1166   1.896       .  S
Al1157     O1170   1.919       .  S
Al1157     O1167   1.945       .  S
Al1157     O1162   1.784       .  S
O1158      C1165   1.269       .  A
O1158     Al1166   1.949       .  S
O1159      C1168   1.266       .  A
O1159     Al1166   1.914       .  S
O1160     Al1166   1.852       .  S
O1161      C1168   1.252       .  A
O1162     Al1166   1.782       .  S
O1163      C1164   1.264       .  A
C1164      C1434   1.472       .  S
C1165      C1297   1.494       .  S
C1168      C1417   1.470       .  S
C1169      O1170   1.264       .  A
C1169      C1397   1.494       .  S
N1171      C1176   1.364       .  A
N1171      C1175   1.362       .  A
N1171      H1203   1.041       .  S
N1172      C1179   1.374       .  A
N1172      C1180   1.373       .  A
N1173      C1178   1.369       .  A
N1173      C1177   1.373       .  A
N1173      H1204   1.045       .  S
N1174      C1181   1.376       .  A
N1174      C1182   1.370       .  A
C1175      C2815   1.363       .  A
C1175      C1191   1.420       .  A
C1176      C1192   1.443       .  A
C1176      C1184   1.388       .  A
C1177      C1185   1.378       .  A
C1177      C1194   1.437       .  A
C1178      C1193   1.454       .  A
C1178      C1186   1.395       .  A
C1179      C1191   1.454       .  A
C1179      C1187   1.376       .  A
C1180      C1194   1.436       .  A
C1180      C1188   1.361       .  A
C1181      C1189   1.377       .  A
C1181      C1192   1.451       .  A
C1182      C1190   1.376       .  A
C1182      C1193   1.448       .  A
C1183      C2807   1.363       .  A
C1183      C2816   1.358       .  A
C1183      H1195   1.051       .  S
C1184      C2815   1.357       .  A
C1184      H1196   1.074       .  S
C1185      C1186   1.385       .  A
C1185      H1197   1.081       .  S
C1186      H1198   1.077       .  S
C1187      C1188   1.320       .  A
C1187      H1199   1.063       .  S
C1188      H1200   1.046       .  S
C1189      C1190   1.326       .  A
C1189      H1201   1.070       .  S
C1190      H1202   1.062       .  S
C1191      C2755   1.631       .  S
N1205      C1210   1.354       .  A
N1205      C1209   1.367       .  A
N1205      H1237   1.037       .  S
N1206      C1213   1.366       .  A
N1206      C1214   1.358       .  A
N1207      C1212   1.366       .  A
N1207      C1211   1.368       .  A
N1207      H1238   1.034       .  S
N1208      C1215   1.380       .  A
N1208      C1216   1.378       .  A
C1209      C1217   1.391       .  A
C1209      C1225   1.451       .  A
C1210      C1226   1.432       .  A
C1210      C1218   1.380       .  A
C1211      C1219   1.367       .  A
C1211      C1228   1.437       .  A
C1212      C1227   1.474       .  A
C1212      C1220   1.405       .  A
C1213      C1225   1.434       .  A
C1213      C1221   1.385       .  A
C1214      C1228   1.436       .  A
C1214      C1222   1.389       .  A
C1215      C1223   1.361       .  A
C1215      C1226   1.450       .  A
C1216      C1224   1.360       .  A
C1216      C1227   1.461       .  A
C1217      C1218   1.369       .  A
C1217      H1229   1.077       .  S
C1218      H1230   1.079       .  S
C1219      C1220   1.364       .  A
C1219      H1231   1.065       .  S
C1221      C1222   1.377       .  A
C1221      H1233   1.082       .  S
C1222      H1234   1.083       .  S
C1223      C1224   1.335       .  A
C1223      H1235   1.046       .  S
C1224      H1236   1.050       .  S
N1239      C1244   1.389       .  A
N1239      C1243   1.383       .  A
N1239      H1271   1.044       .  S
N1240      C1247   1.356       .  A
N1240      C1248   1.368       .  A
N1241      C1246   1.358       .  A
N1241      C1245   1.342       .  A
N1241      H1272   1.043       .  S
N1242      C1249   1.365       .  A
N1242      C1250   1.372       .  A
C1243      C1251   1.364       .  A
C1243      C1259   1.455       .  A
C1244      C1260   1.474       .  A
C1244      C1252   1.377       .  A
C1245      C1253   1.387       .  A
C1245      C1262   1.413       .  A
C1246      C1261   1.418       .  A
C1246      C1254   1.384       .  A
C1247      C1259   1.428       .  A
C1247      C2887   1.390       .  A
C1248      C1262   1.415       .  A
C1248      C1256   1.381       .  A
C1249      C1257   1.384       .  A
C1249      C1260   1.444       .  A
C1250      C1258   1.390       .  A
C1250      C1261   1.455       .  A
C1251      C1252   1.333       .  A
C1251      H1263   1.053       .  S
C1252      H1264   1.047       .  S
C1253      C1254   1.385       .  A
C1253      H1265   1.082       .  S
C1254      H1266   1.075       .  S
C1255      C2879   1.391       .  A
C1255      C2888   1.379   1_455  A
C1255      H1267   1.077       .  S
C1256      C2887   1.379       .  A
C1256      H1268   1.081       .  S
C1257      C1258   1.368       .  A
C1258      H1270   1.071       .  S
C1259      C2754   1.647       .  S
C1273      C1274   1.428       .  A
C1273      C1278   1.397       .  A
C1273      F1280   1.347       .  S
C1274      C1275   1.420       .  A
C1275      C1276   1.393       .  A
C1275      F1282   1.350       .  S
C1276      C1277   1.402       .  A
C1276      F1281   1.355       .  S
C1277      C1278   1.396       .  A
C1278      F1279   1.358       .  S
C1283      C1284   1.428       .  A
C1283      C1288   1.412       .  A
C1283      F1290   1.354       .  S
C1284      C1285   1.431       .  A
C1285      C1286   1.382       .  A
C1285      F1292   1.354       .  S
C1286      C1287   1.400       .  A
C1286      F1291   1.357       .  S
C1287      C1288   1.405       .  A
C1288      F1289   1.357       .  S
C1293      C1294   1.439       .  A
C1293      C1298   1.415       .  A
C1293      F1300   1.353       .  S
C1294      C1295   1.416       .  A
C1295      C1296   1.385       .  A
C1295      F1302   1.328       .  S
C1296      C1297   1.398       .  A
C1296      F1301   1.358       .  S
C1297      C1298   1.399       .  A
C1298      F1299   1.355       .  S
C1303      C1304   1.439       .  A
C1303      C1308   1.382       .  A
C1303      F2942   1.357   1_455  S
C1304      C1305   1.426       .  A
C1305      C1306   1.398       .  A
C1305      F1312   1.356   1_565  S
C1306      C1307   1.398       .  A
C1306      F1311   1.356   1_565  S
C1307      C1308   1.389       .  A
C1308      F2941   1.359   1_455  S
F1309      C2940   1.359       .  S
F1310      C2935   1.357       .  S
C1313      C1314   1.430       .  A
C1313      C1318   1.405       .  A
C1313      F1320   1.350       .  S
C1314      C1315   1.428       .  A
C1315      C1316   1.392       .  A
C1315      F1322   1.354       .  S
C1316      C1317   1.399       .  A
C1316      F1321   1.351       .  S
C1317      C1318   1.402       .  A
C1318      F2951   1.358       .  S
F1319      C2950   1.358       .  S
C1323      C1324   1.406       .  A
C1323      C1328   1.405       .  A
C1323      F1330   1.358       .  S
C1324      C1325   1.403       .  A
C1325      C1326   1.403       .  A
C1326      C1327   1.431       .  A
C1326      F1331   1.357   1_565  S
C1327      C1328   1.431       .  A
C1328      F1329   1.358       .  S
C1333      C1334   1.424       .  A
C1333      C1338   1.389       .  A
C1333      F1340   1.353       .  S
C1334      C1335   1.439       .  A
C1335      C1336   1.399       .  A
C1335      F1342   1.346       .  S
C1336      C1337   1.391       .  A
C1336      F1341   1.358       .  S
C1337      C1338   1.405       .  A
C1338      F1339   1.355       .  S
C1343      C1344   1.421       .  A
C1343      C1348   1.397       .  A
C1343      F1350   1.354       .  S
C1344      C1345   1.432       .  A
C1345      C1346   1.401       .  A
C1345      F1352   1.355       .  S
C1346      C1347   1.398       .  A
C1346      F1351   1.356       .  S
C1347      C1348   1.406       .  A
C1348      F2981   1.357       .  S
F1349      C2980   1.357   1_455  S
C1353      C1354   1.398       .  A
C1353      C1358   1.414       .  A
C1353      F1360   1.353       .  S
C1354      C1355   1.399       .  A
C1355      C1356   1.386       .  A
C1355      F1362   1.360       .  S
C1356      C1357   1.428       .  A
C1356      F1361   1.340       .  S
C1357      C1358   1.441       .  A
C1358      F1359   1.353       .  S
C1363      C1364   1.431   1_565  A
C1363      C1368   1.396       .  A
C1363      F1370   1.352       .  S
C1364      C1365   1.438       .  A
C1365      C1366   1.394   1_545  A
C1366      C1367   1.395       .  A
C1366      F1371   1.358       .  S
C1367      C1368   1.404       .  A
C1368      F1369   1.359       .  S
C1373      C1374   1.394       .  A
C1373      C1378   1.381       .  A
C1373      F1380   1.359       .  S
C1374      C1375   1.415       .  A
C1375      C1376   1.408       .  A
C1375      F1382   1.357       .  S
C1376      C1377   1.403       .  A
C1376      F1381   1.355       .  S
C1377      C1378   1.435       .  A
C1378      F1379   1.353       .  S
C1383      C1384   1.440       .  A
C1383      C1388   1.388       .  A
C1383      F1390   1.353   1_455  S
C1384      C2779   1.576   1_455  S
C1384      C1385   1.425       .  A
C1385      C1386   1.395       .  A
C1385      F1392   1.350       .  S
C1386      C1387   1.407       .  A
C1386      F1391   1.358       .  S
C1387      C1388   1.391       .  A
C1388      F1389   1.359       .  S
C1393      C1394   1.426       .  A
C1393      C1398   1.403       .  A
C1393      F1400   1.355       .  S
C1394      C1395   1.397       .  A
C1395      C1396   1.407       .  A
C1395      F1402   1.357       .  S
C1396      C1397   1.413       .  A
C1396      F1401   1.355       .  S
C1397      C1398   1.408       .  A
C1398      F1399   1.357       .  S
C1403      C1404   1.430       .  A
C1403      C1408   1.397       .  A
C1403      F1410   1.348       .  S
C1404      C1405   1.419       .  A
C1405      C1406   1.395       .  A
C1405      F1412   1.353       .  S
C1406      C1407   1.405       .  A
C1406      F1411   1.355       .  S
C1407      C1408   1.396       .  A
C1408      F1409   1.358       .  S
C1413      C1414   1.439       .  A
C1413      C1418   1.385       .  A
C1413      F1420   1.351       .  S
C1414      C1415   1.433       .  A
C1415      C1416   1.393       .  A
C1415      F1422   1.353       .  S
C1416      C1417   1.399       .  A
C1416      F1421   1.358       .  S
C1417      C1418   1.390       .  A
C1418      F1419   1.359       .  S
C1423      C1424   1.435       .  A
C1423      C1428   1.402       .  A
C1423      F1430   1.352       .  S
C1424      C1425   1.426       .  A
C1425      C1426   1.391       .  A
C1425      F1432   1.350       .  S
C1426      C1427   1.400       .  A
C1426      F1431   1.357       .  S
C1427      C1428   1.392       .  A
C1428      F1429   1.355       .  S
C1433      C1434   1.393       .  A
C1433      C1438   1.382       .  A
C1433      F1440   1.360       .  S
C1434      C1435   1.399       .  A
C1435      C1436   1.402       .  A
C1435      F1442   1.357       .  S
C1436      C1437   1.431       .  A
C1436      F1441   1.352       .  S
C1437      C2601   1.575       .  S
C1437      C1438   1.439       .  A
C1438      F1439   1.354       .  S
C1443      C1444   1.401       .  A
C1443      C1448   1.406       .  A
C1443      F1450   1.355       .  S
C1444      C1445   1.400       .  A
C1445      C1446   1.388       .  A
C1445      F1452   1.359       .  S
C1446      C1447   1.429       .  A
C1446      F1451   1.355       .  S
C1447      C1448   1.426       .  A
C1448      F1449   1.352       .  S
C1453      C1454   1.425       .  A
C1453      C1458   1.399       .  A
C1453      F1460   1.354       .  S
C1454      C1455   1.435       .  A
C1455      C1456   1.371       .  A
C1455      F1462   1.354       .  S
C1456      C1457   1.386       .  A
C1456      F1461   1.360       .  S
C1457      C1458   1.399       .  A
C1458      F1459   1.355       .  S
C1463      C1464   1.403       .  A
C1463      C1468   1.392       .  A
C1463      F1470   1.358       .  S
C1464      C1465   1.397       .  A
C1465      C1466   1.408       .  A
C1465      F1472   1.356       .  S
C1466      C1467   1.442       .  A
C1466      F1471   1.352       .  S
C1467      C1468   1.431       .  A
C1468      F1469   1.353       .  S
C1473      C1474   1.431       .  A
C1473      C1478   1.386       .  A
C1473      F1480   1.350       .  S
C1474      C1475   1.426       .  A
C1475      C1476   1.403       .  A
C1475      F1482   1.349       .  S
C1476      C1477   1.402       .  A
C1476      F1481   1.358       .  S
C1477      C1478   1.398       .  A
C1478      F1479   1.358       .  S
C1483      C1484   1.382       .  A
C1483      C1488   1.378       .  A
C1483      F1490   1.360       .  S
C1484      C1485   1.409       .  A
C1485      C1486   1.414       .  A
C1485      F1492   1.357       .  S
C1486      C1487   1.410       .  A
C1486      F1491   1.355   1_554  S
C1487      C1488   1.434       .  A
C1488      F1489   1.351       .  S
C1493      C1494   1.395       .  A
C1493      C1498   1.403       .  A
C1493      F1500   1.358       .  S
C1494      C1495   1.398       .  A
C1495      C1496   1.385       .  A
C1495      F1502   1.354       .  S
C1496      C1497   1.388       .  A
C1496      F1501   1.313       .  S
C1497      C1498   1.436       .  A
C1498      F1499   1.346       .  S
C1503      C1504   1.408       .  A
C1503      C1508   1.388       .  A
C1503      F1510   1.358       .  S
C1504      C1505   1.403       .  A
C1505      C1506   1.401       .  A
C1505      F1512   1.355       .  S
C1506      C1507   1.398       .  A
C1506      F1511   1.358   1_554  S
C1507      C1508   1.423       .  A
C1508      F1509   1.354       .  S
C1513      C1514   1.400       .  A
C1513      C1518   1.393       .  A
C1513      F1520   1.353       .  S
C1514      C1515   1.394       .  A
C1515      C1516   1.391       .  A
C1515      F1522   1.358       .  S
C1516      C1517   1.426       .  A
C1516      F1521   1.344       .  S
C1517      C1518   1.427       .  A
C1518      F1519   1.353       .  S
C1523      C1524   1.429       .  A
C1523      C1528   1.399       .  A
C1523      F1530   1.347       .  S
C1524      C1525   1.440       .  A
C1525      C1526   1.393       .  A
C1525      F1532   1.353       .  S
C1526      C1527   1.395       .  A
C1526      F1531   1.359       .  S
C1527      C1528   1.400       .  A
C1528      F1529   1.359       .  S
C1533      C1534   1.411       .  A
C1533      C1538   1.401       .  A
C1533      F1540   1.358       .  S
C1534      C1535   1.394       .  A
C1535      C1536   1.400       .  A
C1535      F1542   1.354       .  S
C1536      C1537   1.433       .  A
C1536      F1541   1.354       .  S
C1537      C1538   1.423       .  A
C1538      F1539   1.354       .  S
C1543      C1544   1.405       .  A
C1543      C1548   1.410       .  A
C1543      F1550   1.354       .  S
C1544      C1545   1.412       .  A
C1545      C1546   1.404       .  A
C1545      F1552   1.356       .  S
C1546      C1547   1.420       .  A
C1546      F1551   1.348       .  S
C1547      C1548   1.429       .  A
C1548      F1549   1.354       .  S
C1553      C1554   1.400       .  A
C1553      C1558   1.402       .  A
C1553      F1560   1.357       .  S
C1554      C1555   1.406       .  A
C1555      C1556   1.392       .  A
C1555      F1562   1.347       .  S
C1556      C1557   1.398       .  A
C1556      F1561   1.356       .  S
C1557      C1558   1.430       .  A
C1558      F1559   1.353       .  S
C1563      C1564   1.395       .  A
C1563      C1568   1.402       .  A
C1563      F1570   1.359       .  S
C1564      C1565   1.397       .  A
C1565      C1566   1.372       .  A
C1565      F1572   1.355       .  S
C1566      C1567   1.435       .  A
C1566      F1571   1.353       .  S
C1567      C1568   1.438       .  A
C1568      F1569   1.348       .  S
C1573      C1574   1.423       .  A
C1573      C1578   1.387       .  A
C1573      F1580   1.349       .  S
C1574      C1575   1.403       .  A
C1575      C1576   1.401       .  A
C1575      F1582   1.355       .  S
C1576      C1577   1.407       .  A
C1576      F1581   1.350   1_455  S
C1577      C1578   1.397       .  A
C1578      F1579   1.358       .  S
C1583      C1584   1.399       .  A
C1583      C1588   1.380       .  A
C1583      F1590   1.356       .  S
C1584      C1585   1.408       .  A
C1585      C1586   1.420       .  A
C1585      F1592   1.357       .  S
C1586      C1587   1.435       .  A
C1586      F1591   1.348       .  S
C1587      C1588   1.361       .  A
C1588      F1589   1.327       .  S
C1593      C1594   1.421       .  A
C1593      C1598   1.403       .  A
C1593      F1600   1.351   1_565  S
C1594      C1595   1.430       .  A
C1595      C1596   1.377       .  A
C1595      F1602   1.351       .  S
C1596      C1597   1.392       .  A
C1596      F1601   1.360       .  S
C1597      C1598   1.402       .  A
C1603      C1604   1.408       .  A
C1603      C1608   1.408       .  A
C1603      F1610   1.350       .  S
C1604      C1605   1.393       .  A
C1605      C1606   1.399       .  A
C1605      F1612   1.357       .  S
C1606      C1607   1.429       .  A
C1606      F1611   1.355       .  S
C1607      C1608   1.393       .  A
C1608      F1609   1.346       .  S
C1613      C1614   1.422       .  A
C1613      C1618   1.397       .  A
C1613      F1620   1.351   1_455  S
C1614      C1615   1.396       .  A
C1615      C1616   1.410       .  A
C1615      F1622   1.357       .  S
C1616      C1617   1.414       .  A
C1616      F1621   1.357   1_565  S
C1617      C1618   1.404       .  A
C1618      F1619   1.358   1_455  S
C1623      C1624   1.424       .  A
C1623      C1628   1.405       .  A
C1623      F1630   1.352       .  S
C1624      C1625   1.431       .  A
C1625      C1626   1.388       .  A
C1625      F1632   1.347       .  S
C1626      C1627   1.398       .  A
C1626      F1631   1.360       .  S
C1627      C1628   1.405       .  A
C1628      F1629   1.357       .  S
C1633      C1681   1.628       .  S
C1633      C1738   1.591       .  S
C1633      C2430   1.591       .  S
C1633      C2440   1.573       .  S
C1634      C1678   1.567       .  S
C1634      C1772   1.617       .  S
C1634      C2410   1.572       .  S
C1634      C2423   1.581       .  S
C1635      C1739   1.600       .  S
C1635      C1773   1.640       .  S
C1635      C2390   1.576       .  S
C1635      C2403   1.577       .  S
O1636      C1651   1.243       .  A
O1636     Al1644   1.808       .  S
C1637      O1647   1.254       .  A
C1637      O1638   1.262       .  A
C1637      C2400   1.483       .  S
O1638     Al1640   1.939       .  S
O1639      C1641   1.259       .  A
O1639     Al1640   1.868       .  S
Al1640     O1648   1.853       .  S
Al1640     O1650   1.936       .  S
Al1640     O1649   1.792       .  S
C1641      O1654   1.264       .  A
C1641      C2443   1.486       .  S
O1642      C1652   1.247       .  A
O1642     Al1644   1.846       .  S
O1643      C1656   1.249       .  A
O1643     Al1653   1.868       .  S
Al1644     O1657   1.920       .  S
Al1644     O1654   1.921       .  S
Al1644     O1649   1.788       .  S
O1645      C1652   1.273       .  A
O1645     Al1653   1.955       .  S
O1646      C1655   1.264       .  A
O1646     Al1653   1.915       .  S
O1647     Al1653   1.842       .  S
O1648      C1655   1.257       .  A
O1649     Al1653   1.778       .  S
O1650      C1651   1.264       .  A
C1651      C2380   1.468       .  S
C1652      C2420   1.470       .  S
C1655      C2370   1.467       .  S
C1656      O1657   1.263       .  A
C1656      C2360   1.495       .  S
N1658      C1663   1.359       .  A
N1658      C2478   1.350   1_545  A
N1658      H1690   1.043       .  S
N1659      C1666   1.357       .  A
N1659      C1667   1.359       .  A
N1660      C1665   1.362   1_565  A
N1660      C2480   1.366       .  A
N1660      H1691   1.042       .  S
N1661      C1668   1.360       .  A
N1661      C1669   1.357       .  A
C1662      N2474   1.348       .  A
C1662      C1670   1.376       .  A
C1662      C1678   1.405       .  A
C1663      C1679   1.437       .  A
C1663      C1671   1.392   1_545  A
C1664      N2476   1.366       .  A
C1664      C1672   1.397       .  A
C1664      C1681   1.462       .  A
C1665      C1680   1.432       .  A
C1665      C1673   1.381       .  A
C1666      C1678   1.419       .  A
C1666      C1674   1.380       .  A
C1667      C1681   1.416       .  A
C1667      C1675   1.387       .  A
C1668      C1676   1.385       .  A
C1668      C1679   1.423       .  A
C1669      C1677   1.387       .  A
C1669      C1680   1.425       .  A
C1670      C2487   1.380       .  A
C1670      H1682   1.078       .  S
C1671      C2486   1.380       .  A
C1671      H1683   1.068   1_566  S
C1672      C2489   1.396       .  A
C1672      H1684   1.079       .  S
C1673      C2488   1.396       .  A
C1673      H1685   1.082       .  S
C1674      C1675   1.374       .  A
C1674      H1686   1.082       .  S
C1675      H1687   1.079       .  S
C1676      C1677   1.383       .  A
C1676      H1688   1.082       .  S
C1677      H1689   1.082       .  S
C1679      C1694   1.584       .  S
C1680      C1692   1.614       .  S
C1692      C1774   1.625       .  S
C1692      C2340   1.584   1_556  S
C1692      C2353   1.590   1_556  S
C1693      C1737   1.654       .  S
C1693      C1771   1.642       .  S
C1693      C2323   1.582   1_556  S
C1693      C2333   1.586   1_556  S
C1694      C1740   1.614       .  S
C1694      C2303   1.571   1_556  S
C1694      C2313   1.581   1_556  S
O1695      C1710   1.264       .  A
O1695     Al1703   1.919       .  S
C1696      O1706   1.278       .  A
C1696      O1697   1.252       .  A
C1696      C2350   1.496       .  S
O1697     Al1699   1.844       .  S
O1698      C1700   1.262       .  A
O1698     Al1699   1.918       .  S
Al1699     O1707   1.909       .  S
Al1699     O1709   1.835       .  S
Al1699     O1708   1.791       .  S
C1700      O1713   1.257       .  A
C1700      C2310   1.465       .  S
O1701      C1711   1.259       .  A
O1701     Al1703   1.917       .  S
O1702      C1715   1.275       .  A
O1702     Al1712   1.962       .  S
Al1703     O1716   1.849       .  S
Al1703     O1713   1.864       .  S
Al1703     O1708   1.782       .  S
O1704      C1711   1.249       .  A
O1704     Al1712   1.859       .  S
O1705      C1714   1.250       .  A
O1705     Al1712   1.858       .  S
O1706     Al1712   1.963       .  S
O1707      C1714   1.257       .  A
O1708     Al1712   1.767       .  S
O1709      C1710   1.252       .  A
C1710      C2273   1.452       .  S
C1711      C2330   1.480       .  S
C1714      C2293   1.484       .  S
C1715      O1716   1.256       .  A
C1715      C2280   1.491       .  S
N1717      C1721   1.360       .  A
N1717      H1749   1.045       .  S
N1718      C1725   1.367       .  A
N1718      C1726   1.368       .  A
N1719      C1723   1.361       .  A
N1719      H1750   1.035   1_655  S
N1720      C1727   1.364       .  A
N1720      C1728   1.361       .  A
C1721      C1729   1.401   1_655  A
C1721      C1737   1.430       .  A
C1722      C1738   1.407       .  A
C1722      C1730   1.366       .  A
C1723      C1731   1.377       .  A
C1723      C1740   1.439       .  A
C1724      C1739   1.456       .  A
C1724      C1732   1.391       .  A
C1725      C1737   1.451       .  A
C1725      C1733   1.394   1_556  A
C1726      C1740   1.427       .  A
C1726      C1734   1.379   1_556  A
C1727      C1735   1.393       .  A
C1727      C1738   1.450       .  A
C1728      C1736   1.381       .  A
C1728      C1739   1.436       .  A
C1729      H1741   1.073   1_556  S
C1730      H1742   1.080       .  S
C1731      H1743   1.079       .  S
C1732      H1744   1.068       .  S
C1733      C1734   1.364       .  A
C1733      H1745   1.079   1_655  S
C1734      H1746   1.081       .  S
C1735      C1736   1.383       .  A
C1735      H1747   1.080       .  S
C1736      H1748   1.082       .  S
N1751      C1756   1.369       .  A
N1751      C1755   1.370       .  A
N1751      H1783   1.038       .  S
N1752      C1759   1.372       .  A
N1752      C1760   1.375       .  A
N1753      C1758   1.364       .  A
N1753      C1757   1.365       .  A
N1753      H1784   1.036       .  S
N1754      C1761   1.366       .  A
N1754      C1762   1.366       .  A
C1755      C1763   1.379       .  A
C1755      C1771   1.448       .  A
C1756      C1772   1.460       .  A
C1756      C1764   1.393       .  A
C1757      C1765   1.391       .  A
C1757      C1774   1.450       .  A
C1758      C1773   1.442       .  A
C1758      C1766   1.378       .  A
C1759      C1771   1.437       .  A
C1759      C1767   1.341       .  A
C1760      C1774   1.457       .  A
C1760      C1768   1.369       .  A
C1761      C1769   1.382       .  A
C1761      C1772   1.425       .  A
C1762      C1770   1.388       .  A
C1762      C1773   1.435       .  A
C1763      C1764   1.363       .  A
C1763      H1775   1.079       .  S
C1764      H1776   1.076       .  S
C1765      C1766   1.373       .  A
C1765      H1777   1.077       .  S
C1766      H1778   1.074       .  S
C1767      C1768   1.338       .  A
C1767      H1779   1.044       .  S
C1768      H1780   1.055       .  S
C1769      C1770   1.364       .  A
C1769      H1781   1.079       .  S
C1770      H1782   1.075       .  S
C1785      C1857   1.607       .  S
C1785      C1923   1.625       .  S
C1785      C2263   1.584       .  S
C1786      C1856   1.606       .  S
C1786      C1892   1.610       .  S
C1786      C2230   1.584       .  S
C1786      C2240   1.573       .  S
C1787      C1889   1.620       .  S
C1787      C1926   1.635       .  S
C1787      C3026   1.592       .  S
C1787      C2220   1.580       .  S
O1788      C1803   1.254       .  A
O1788     Al1796   1.863       .  S
C1789      O1799   1.252       .  A
C1789      O1790   1.269       .  A
C1789      C2223   1.484       .  S
O1790     Al1792   1.943       .  S
O1791      C1793   1.251       .  A
O1791     Al1792   1.845       .  S
Al1792     O1800   1.856       .  S
Al1792     O1802   1.933       .  S
Al1792     O1801   1.770       .  S
C1793      O1806   1.267       .  A
C1793      C2260   1.485       .  S
O1794      C1804   1.249       .  A
O1794     Al1796   1.828       .  S
O1795      C1808   1.252       .  A
O1795     Al1805   1.876       .  S
Al1796     O1809   1.912       .  S
Al1796     O1806   1.945       .  S
Al1796     O1801   1.786       .  S
O1797      C1804   1.273       .  A
O1797     Al1805   1.954       .  S
O1798      C1807   1.268       .  A
O1798     Al1805   1.934       .  S
O1799     Al1805   1.851       .  S
O1800      C1807   1.252       .  A
O1801     Al1805   1.779       .  S
O1802      C1803   1.270       .  A
C1803      C2203   1.482       .  S
C1804      C2243   1.481       .  S
C1807      C2183   1.483       .  S
C1808      O1809   1.264       .  A
C1808      C2190   1.478       .  S
C1810      C1855   1.626       .  S
C1810      C2741   1.605       .  S
C1810      C2173   1.599       .  S
C1810      C2290   1.579       .  S
C1811      C1891   1.612       .  S
C1811      C2160   1.581       .  S
C1811      C2283   1.590       .  S
C1812      C2706   1.629       .  S
C1812      C2150   1.600       .  S
C1812      C2270   1.553       .  S
O1813      C1828   1.251   1_455  A
C1814      O1824   1.248       .  A
C1814      O1815   1.264       .  A
C1814      C2163   1.490       .  S
O1815     Al1817   1.929       .  S
O1816      C1818   1.243       .  A
O1816     Al2633   1.823   1_545  S
Al1817     O2632   1.816       .  S
Al1817     O1825   1.802       .  S
Al1817     O2643   1.936       .  S
Al1817     O2642   1.785       .  S
C1818      O1831   1.265       .  A
C1818      C2153   1.482       .  S
O1819      C1829   1.252       .  A
O1819     Al1821   1.826       .  S
O1820      C1833   1.248   1_565  A
O1820     Al2646   1.863       .  S
Al1821     O1834   1.913       .  S
O1822      C1829   1.275       .  A
O1822     Al2646   1.967   1_545  S
O1823      C1832   1.268       .  A
O1825      C1832   1.241       .  A
O1826     Al2633   1.783   1_445  S
O1827      C1828   1.270       .  A
O1827     Al2633   1.941   1_545  S
C1828      C2300   1.461       .  S
C1829      C2170   1.491       .  S
Al1830     O2636   1.865       .  S
Al1830     O2638   1.976       .  S
C1832      C2320   1.462       .  S
C1833      O1834   1.260       .  A
C1833      C2343   1.480       .  S
N1835      C1840   1.358       .  A
N1835      C1839   1.369       .  A
N1835      H1867   1.040       .  S
N1836      C1843   1.353       .  A
N1836      C1844   1.367       .  A
N1837      C1842   1.355       .  A
N1837      C1841   1.360       .  A
N1837      H1868   1.038       .  S
N1838      C1845   1.364       .  A
N1838      C1846   1.362       .  A
C1839      C1847   1.386       .  A
C1839      C1855   1.457       .  A
C1840      C1856   1.460       .  A
C1840      C1848   1.395       .  A
C1841      C1858   1.432       .  A
C1842      C1857   1.452       .  A
C1842      C1850   1.395       .  A
C1843      C1855   1.429       .  A
C1843      C1851   1.392       .  A
C1844      C1858   1.433       .  A
C1844      C1852   1.386       .  A
C1845      C1853   1.386       .  A
C1845      C1856   1.440       .  A
C1846      C1854   1.387       .  A
C1846      C1857   1.440       .  A
C1847      C1848   1.389       .  A
C1847      H1859   1.080       .  S
C1848      H1860   1.068       .  S
C1849      H1861   1.054       .  S
C1851      C1852   1.359       .  A
C1851      H1863   1.082       .  S
C1852      H1864   1.083       .  S
C1853      C1854   1.384       .  A
C1853      H1865   1.082       .  S
C1854      H1866   1.082       .  S
N1869      C1874   1.368       .  A
N1869      C1873   1.364       .  A
N1869      H1901   1.039       .  S
N1870      C1877   1.360       .  A
N1870      C1878   1.363       .  A
N1871      C1876   1.366       .  A
N1871      C1875   1.372       .  A
N1871      H1902   1.039       .  S
N1872      C1879   1.372       .  A
N1872      C1880   1.368       .  A
C1873      C2697   1.366       .  A
C1873      C1889   1.426       .  A
C1874      C1890   1.477       .  A
C1874      C2698   1.409       .  A
C1875      C1883   1.383       .  A
C1875      C1892   1.449       .  A
C1876      C1891   1.442       .  A
C1876      C1884   1.378       .  A
C1877      C1889   1.433       .  A
C1877      C1885   1.386       .  A
C1878      C1892   1.431       .  A
C1878      C1886   1.387       .  A
C1879      C1887   1.372       .  A
C1879      C1890   1.446       .  A
C1880      C1888   1.377       .  A
C1880      C1891   1.449       .  A
C1881      C2689   1.366       .  A
C1881      C1882   1.367       .  A
C1881      H1893   1.081       .  S
C1882      C2690   1.409       .  A
C1882      H1894   1.070       .  S
C1883      C1884   1.369       .  A
C1883      H1895   1.066       .  S
C1884      H1896   1.063       .  S
C1885      C1886   1.379       .  A
C1885      H1897   1.082       .  S
C1886      H1898   1.082       .  S
C1887      C1888   1.326       .  A
C1887      H2715   1.057       .  S
C1888      H1900   1.067       .  S
C1890      C2628   1.628       .  S
H1899      C2703   1.055       .  S
N1903      C1908   1.375       .  A
N1903      C1907   1.366       .  A
N1903      H1935   1.041       .  S
N1904      C1911   1.375       .  A
N1904      C1912   1.374       .  A
N1905      C1910   1.371       .  A
N1905      C1909   1.365       .  A
N1905      H1936   1.045       .  S
N1906      C1913   1.360       .  A
N1906      C1914   1.362       .  A
C1907      C1915   1.374       .  A
C1907      C1923   1.448       .  A
C1908      C1924   1.452       .  A
C1909      C2733   1.390       .  A
C1909      C1926   1.447       .  A
C1910      C1925   1.430       .  A
C1910      C2734   1.378       .  A
C1911      C1923   1.448       .  A
C1911      C1919   1.374       .  A
C1912      C1926   1.448       .  A
C1912      C1920   1.376       .  A
C1913      C1921   1.382       .  A
C1913      C1924   1.427       .  A
C1914      C1922   1.391       .  A
C1914      C1925   1.433       .  A
C1916      H1928   1.072       .  S
C1917      C2725   1.393       .  A
C1917      C1918   1.379       .  A
C1917      H1929   1.077       .  S
C1918      C2726   1.378       .  A
C1918      H1930   1.081       .  S
C1919      C1920   1.321       .  A
C1919      H1931   1.063       .  S
C1920      H1932   1.063       .  S
C1921      C1922   1.382       .  A
C1921      H1933   1.082       .  S
C1922      H2750   1.081       .  S
C1925      C2626   1.605       .  S
H1934      C2738   1.081   1_545  S
C1937      C2010   1.640       .  S
C1937      C2892   1.645       .  S
C1937      C2143   1.599       .  S
C1937      C2363   1.586       .  S
C1938      C2042   1.622       .  S
C1938      C2130   1.593       .  S
C1938      C2373   1.589       .  S
C1939      C2859   1.650       .  S
C1939      C2120   1.577       .  S
C1939      C2383   1.581       .  S
O1940      C2771   1.260       .  A
O1940     Al1948   1.897   1_565  S
C1941      O2767   1.265       .  A
C1941      O1942   1.265       .  A
C1941      C2140   1.493       .  S
O1942     Al1944   1.928       .  S
O1943     Al1944   1.865       .  S
Al1944     O1952   1.835       .  S
Al1944     O2769   1.769       .  S
C1945      O2774   1.261       .  A
C1945      C2123   1.463       .  S
O1946      C1956   1.265       .  A
O1946     Al1948   1.887       .  S
O1947     Al1957   1.890       .  S
Al1948     O1961   1.887       .  S
Al1948     O1958   1.916   1_545  S
O1949      C1956   1.272       .  A
O1950      C2775   1.262       .  A
O1950     Al1957   1.910   1_565  S
O1951      C2757   1.264   1_545  A
O1951     Al1957   1.902       .  S
O1952      C1959   1.251       .  A
O1953     Al2760   1.771       .  S
O1953     Al1957   1.776   1_565  S
O1954      C1955   1.267       .  A
C1955      O2756   1.260       .  A
C1955      C2433   1.486       .  S
C1956      C2133   1.493       .  S
O1958      C2761   1.261       .  A
C1959      O2766   1.260       .  A
C1959      C2413   1.458       .  S
C1960      O1961   1.255       .  A
C1960      C2393   1.466       .  S
C1962      C2044   1.611       .  S
C1962      C2077   1.631       .  S
C1962      C2110   1.587       .  S
C1962      C2996   1.587       .  S
C1963      C2008   1.621       .  S
C1963      C2078   1.615       .  S
C1963      C2100   1.589       .  S
C1964      C2009   1.643       .  S
C1964      C2041   1.625       .  S
C1964      C2090   1.577       .  S
C1964      C2193   1.580       .  S
O1965      C1980   1.251       .  A
O1965     Al1973   1.836       .  S
C1966      O1976   1.251       .  A
C1966      O1967   1.264       .  A
C1966      C2093   1.480       .  S
O1967     Al1969   1.926       .  S
O1968      C1970   1.254       .  A
O1968     Al1969   1.856       .  S
Al1969     O1977   1.858       .  S
Al1969     O1979   1.924       .  S
Al1969     O1978   1.785       .  S
C1970      O1983   1.265       .  A
C1970      C2103   1.493       .  S
O1971      C1981   1.250       .  A
O1971     Al1973   1.827       .  S
O1972      C1985   1.256       .  A
O1972     Al1982   1.895       .  S
Al1973     O1986   1.921       .  S
Al1973     O1983   1.943       .  S
Al1973     O1978   1.784       .  S
O1974      C1981   1.269       .  A
O1974     Al1982   1.950       .  S
O1975      C1984   1.266       .  A
O1975     Al1982   1.916       .  S
O1976     Al1982   1.850       .  S
O1977      C1984   1.253       .  A
O1978     Al1982   1.784       .  S
O1979      C1980   1.264       .  A
C1980      C2250   1.471       .  S
C1981      C2113   1.497       .  S
C1984      C2233   1.475       .  S
C1985      O1986   1.263       .  A
C1985      C2213   1.495       .  S
N1987      C1992   1.366       .  A
N1987      C1991   1.361   1_655  A
N1987      H2019   1.041       .  S
N1988      C1995   1.374       .  A
N1988      C1996   1.374       .  A
N1989      C1994   1.370       .  A
N1989      C1993   1.375       .  A
N1989      H2020   1.045       .  S
N1990      C1997   1.378       .  A
N1990      C1998   1.370       .  A
C1991      C2007   1.420       .  A
C1992      C2008   1.441       .  A
C1992      C2000   1.387   1_655  A
C1993      C2001   1.377       .  A
C1993      C2010   1.439       .  A
C1994      C2009   1.458       .  A
C1994      C2002   1.396       .  A
C1995      C2007   1.455   1_655  A
C1995      C2003   1.377       .  A
C1996      C2010   1.439       .  A
C1996      C2004   1.362       .  A
C1997      C2005   1.376       .  A
C1997      C2008   1.452       .  A
C1998      C2006   1.377       .  A
C1998      C2009   1.450       .  A
C1999      H2011   1.051       .  S
C2000      H2012   1.073       .  S
C2001      C2002   1.386       .  A
C2001      H2013   1.081       .  S
C2002      H2014   1.077       .  S
C2003      C2004   1.323       .  A
C2003      H2015   1.063       .  S
C2004      H2016   1.047       .  S
C2005      C2006   1.326       .  A
C2005      H2017   1.071       .  S
C2006      H2018   1.061       .  S
N2021      C2026   1.354       .  A
N2021      C2025   1.367       .  A
N2021      H2053   1.033       .  S
N2022      C2029   1.367       .  A
N2022      C2030   1.358       .  A
N2023      C2028   1.366   1_545  A
N2023      C2027   1.369       .  A
N2023      H2054   1.031       .  S
N2024      C2031   1.381       .  A
N2024      C2032   1.377       .  A
C2025      C2033   1.391       .  A
C2025      C2041   1.450       .  A
C2026      C2042   1.431       .  A
C2026      C2034   1.380       .  A
C2027      C2035   1.367   1_545  A
C2027      C2044   1.435       .  A
C2028      C2043   1.472       .  A
C2028      C2036   1.406       .  A
C2029      C2041   1.436       .  A
C2029      C2037   1.385       .  A
C2030      C2044   1.436       .  A
C2030      C2038   1.390       .  A
C2031      C2039   1.360       .  A
C2031      C2042   1.449       .  A
C2032      C2040   1.359       .  A
C2032      C2043   1.461   1_545  A
C2033      C2034   1.370       .  A
C2033      H2045   1.077       .  S
C2034      H2046   1.079       .  S
C2035      C2036   1.366       .  A
C2035      H2047   1.067       .  S
C2036      H2864   1.072       .  S
C2037      C2038   1.378       .  A
C2037      H2049   1.082       .  S
C2038      H2050   1.083       .  S
C2039      C2040   1.335       .  A
C2039      H2051   1.047       .  S
C2040      H2052   1.051       .  S
C2043      C2755   1.648       .  S
H2048      C2852   1.073       .  S
N2055      C2060   1.390       .  A
N2055      C2059   1.384       .  A
N2055      H2087   1.044       .  S
N2056      C2063   1.356   1_655  A
N2056      C2064   1.369       .  A
N2057      C2062   1.358       .  A
N2057      C2061   1.342       .  A
N2057      H2088   1.044       .  S
N2058      C2065   1.365   1_545  A
N2058      C2066   1.371       .  A
C2059      C2067   1.365       .  A
C2059      C2075   1.459   1_655  A
C2060      C2076   1.477   1_545  A
C2060      C2068   1.376       .  A
C2061      C2069   1.387       .  A
C2061      C2078   1.412       .  A
C2062      C2077   1.419       .  A
C2062      C2070   1.383       .  A
C2063      C2075   1.432       .  A
C2064      C2078   1.417       .  A
C2064      C2072   1.379       .  A
C2065      C2073   1.384       .  A
C2065      C2076   1.444       .  A
C2066      C2074   1.390   1_545  A
C2066      C2077   1.455       .  A
C2067      C2068   1.334       .  A
C2067      H2079   1.054       .  S
C2068      H2080   1.047       .  S
C2069      C2070   1.385       .  A
C2069      H2081   1.082       .  S
C2070      H2082   1.075       .  S
C2071      H2083   1.078       .  S
C2072      H2084   1.081       .  S
C2073      C2074   1.369       .  A
C2073      H2901   1.077       .  S
C2074      H2086   1.072       .  S
C2076      C2753   1.647       .  S
H2085      C2889   1.077       .  S
C2089      C2090   1.427       .  A
C2089      C2094   1.395       .  A
C2089      F2096   1.348       .  S
C2090      C2091   1.421       .  A
C2091      C2092   1.393       .  A
C2091      F2098   1.351       .  S
C2092      C2093   1.402       .  A
C2092      F2097   1.356       .  S
C2093      C2094   1.396       .  A
C2094      F2095   1.357       .  S
C2099      C2100   1.427       .  A
C2099      C2104   1.412       .  A
C2099      F2106   1.355       .  S
C2100      C2101   1.434       .  A
C2101      C2102   1.384       .  A
C2101      F2108   1.354       .  S
C2102      C2103   1.399       .  A
C2102      F2107   1.357       .  S
C2103      C2104   1.405       .  A
C2104      F2105   1.357       .  S
C2109      C2110   1.438       .  A
C2109      C2114   1.416       .  A
C2109      F2116   1.353       .  S
C2110      C2111   1.415       .  A
C2111      C2112   1.385       .  A
C2111      F2118   1.327       .  S
C2112      C2113   1.399       .  A
C2112      F2117   1.356       .  S
C2113      C2114   1.400       .  A
C2114      F2115   1.355       .  S
C2119      C2120   1.441       .  A
C2119      C2124   1.385       .  A
C2120      C2121   1.425       .  A
C2121      C2122   1.398       .  A
C2121      F2128   1.355       .  S
C2122      C2123   1.397       .  A
C2122      F2127   1.356       .  S
C2123      C2124   1.389       .  A
C2129      C2130   1.430       .  A
C2129      C2134   1.408       .  A
C2129      F2136   1.352       .  S
C2130      C2131   1.428       .  A
C2131      C2132   1.392       .  A
C2131      F2138   1.354       .  S
C2132      C2133   1.400       .  A
C2132      F2137   1.351       .  S
C2133      C2134   1.404       .  A
C2139      C2140   1.406       .  A
C2139      C2144   1.404       .  A
C2139      F2146   1.357       .  S
C2140      C2141   1.403       .  A
C2141      C2142   1.404       .  A
C2141      F2964   1.358       .  S
C2142      C2143   1.434       .  A
C2142      F2147   1.357       .  S
C2143      C2144   1.431       .  A
C2144      F2145   1.358       .  S
F2148      C2957   1.358   1_545  S
C2149      C2150   1.425       .  A
C2149      C2154   1.391       .  A
C2149      F2156   1.353   1_545  S
C2150      C2151   1.439       .  A
C2151      C2152   1.398       .  A
C2151      F2158   1.346   1_655  S
C2152      C2153   1.391       .  A
C2152      F2157   1.358   1_655  S
C2153      C2154   1.405       .  A
C2154      F2155   1.355   1_545  S
C2159      C2160   1.416       .  A
C2159      C2164   1.396       .  A
C2159      F2166   1.353   1_655  S
C2160      C2161   1.434       .  A
C2161      C2162   1.401       .  A
C2161      F2168   1.356       .  S
C2162      C2163   1.398       .  A
C2162      F2167   1.356       .  S
C2163      C2164   1.408       .  A
C2169      C2170   1.398       .  A
C2169      C2174   1.413       .  A
C2169      F2176   1.354   1_545  S
C2170      C2171   1.397       .  A
C2171      C2172   1.385       .  A
C2171      F2178   1.361       .  S
C2172      C2173   1.429       .  A
C2172      F2177   1.340       .  S
C2173      C2174   1.441       .  A
C2174      F2175   1.353   1_545  S
C2179      C2180   1.430       .  A
C2179      C2184   1.397       .  A
C2179      F2186   1.352       .  S
C2180      C2778   1.585       .  S
C2180      C2181   1.438       .  A
C2181      C2182   1.392       .  A
C2181      F3004   1.354       .  S
C2182      C2183   1.393       .  A
C2182      F2187   1.358       .  S
C2183      C2184   1.405       .  A
C2184      F2185   1.359       .  S
F2188      C2997   1.355       .  S
C2189      C2190   1.397       .  A
C2189      C2194   1.384       .  A
C2189      F2196   1.359       .  S
C2190      C2191   1.415       .  A
C2191      C2192   1.408       .  A
C2191      F2198   1.357       .  S
C2192      C2193   1.400       .  A
C2192      F2197   1.355       .  S
C2193      C2194   1.435       .  A
C2194      F2195   1.354       .  S
C2199      C2200   1.440       .  A
C2199      C2204   1.389       .  A
C2199      F2206   1.353       .  S
C2200      C2201   1.428       .  A
C2201      C2202   1.400       .  A
C2201      F2208   1.350       .  S
C2202      C2203   1.406       .  A
C2202      F2207   1.358       .  S
C2203      C2204   1.392       .  A
C2204      F2205   1.359       .  S
C2209      C2210   1.426       .  A
C2209      C2214   1.404       .  A
C2209      F2216   1.355       .  S
C2210      C2603   1.589   1_545  S
C2210      C2211   1.397       .  A
C2211      C2212   1.406       .  A
C2211      F2218   1.357       .  S
C2212      C2213   1.413       .  A
C2212      F2217   1.355       .  S
C2213      C2214   1.409       .  A
C2214      F2215   1.357       .  S
C2219      C2220   1.431       .  A
C2219      C2224   1.398       .  A
C2219      F2226   1.350       .  S
C2220      C2221   1.419       .  A
C2221      C2222   1.395       .  A
C2221      F2228   1.353       .  S
C2222      C2223   1.405       .  A
C2222      F2227   1.356       .  S
C2223      C2224   1.397       .  A
C2224      F2225   1.358       .  S
C2229      C2230   1.437       .  A
C2229      C2234   1.387       .  A
C2229      F2236   1.351       .  S
C2230      C2231   1.434       .  A
C2231      C2232   1.394       .  A
C2231      F2238   1.353       .  S
C2232      C2233   1.400       .  A
C2232      F2237   1.358       .  S
C2233      C2234   1.391       .  A
C2234      F2235   1.358       .  S
C2239      C2240   1.434       .  A
C2239      C2244   1.401       .  A
C2239      F2246   1.351       .  S
C2240      C2241   1.426       .  A
C2241      C2242   1.391       .  A
C2241      F2248   1.351       .  S
C2242      C2243   1.400       .  A
C2242      F2247   1.357       .  S
C2243      C2244   1.392       .  A
C2244      F2245   1.354       .  S
C2249      C2250   1.394       .  A
C2249      C2254   1.378       .  A
C2249      F2256   1.360       .  S
C2250      C2251   1.399       .  A
C2251      C2252   1.402       .  A
C2251      F2258   1.358       .  S
C2252      C2253   1.433       .  A
C2252      F2257   1.353       .  S
C2253      C2254   1.435       .  A
C2254      F2255   1.353       .  S
C2259      C2260   1.402       .  A
C2259      C2264   1.408       .  A
C2259      F2266   1.355       .  S
C2260      C2261   1.401       .  A
C2261      C2262   1.388       .  A
C2261      F2268   1.359       .  S
C2262      C2263   1.427       .  A
C2262      F2267   1.355       .  S
C2263      C2264   1.427       .  A
C2264      F2265   1.353       .  S
C2269      C2270   1.425       .  A
C2269      C2274   1.399       .  A
C2269      F2276   1.354       .  S
C2270      C2271   1.434       .  A
C2271      C2272   1.370       .  A
C2271      F2278   1.354       .  S
C2272      C2273   1.388       .  A
C2272      F2277   1.360       .  S
C2273      C2274   1.398       .  A
C2274      F2275   1.355       .  S
C2279      C2280   1.401       .  A
C2279      C2284   1.390       .  A
C2279      F2286   1.358       .  S
C2280      C2281   1.398       .  A
C2281      C2282   1.407       .  A
C2281      F2288   1.356       .  S
C2282      C2283   1.441       .  A
C2282      F2287   1.352       .  S
C2283      C2284   1.433       .  A
C2284      F2285   1.353       .  S
C2289      C2290   1.430       .  A
C2289      C2294   1.388       .  A
C2289      F2296   1.351       .  S
C2290      C2291   1.425       .  A
C2291      C2292   1.406       .  A
C2291      F2298   1.349       .  S
C2292      C2293   1.403       .  A
C2292      F2297   1.357       .  S
C2293      C2294   1.398       .  A
C2294      F2295   1.357       .  S
C2299      C2300   1.384       .  A
C2299      C2304   1.380       .  A
C2299      F2306   1.360       .  S
C2300      C2301   1.408       .  A
C2301      C2302   1.414       .  A
C2301      F2308   1.357       .  S
C2302      C2303   1.409       .  A
C2302      F2307   1.355   1_554  S
C2303      C2304   1.434       .  A
C2304      F2305   1.350       .  S
C2309      C2310   1.394       .  A
C2309      C2314   1.401       .  A
C2309      F2316   1.358       .  S
C2310      C2311   1.397       .  A
C2311      C2312   1.384       .  A
C2311      F2318   1.355       .  S
C2312      C2313   1.387       .  A
C2312      F2317   1.309       .  S
C2313      C2314   1.433       .  A
C2314      F2315   1.344       .  S
C2319      C2320   1.409       .  A
C2319      C2324   1.392       .  A
C2319      F2326   1.359       .  S
C2320      C2321   1.403       .  A
C2321      C2322   1.402       .  A
C2321      F2328   1.354   1_655  S
C2322      C2323   1.396       .  A
C2322      F2327   1.358   1_554  S
C2323      C2324   1.425       .  A
C2324      F2325   1.355       .  S
C2329      C2330   1.401       .  A
C2329      C2334   1.396       .  A
C2329      F2336   1.355       .  S
C2330      C2331   1.394       .  A
C2331      C2332   1.393       .  A
C2331      F2338   1.358       .  S
C2332      C2333   1.427       .  A
C2332      F2337   1.344       .  S
C2333      C2334   1.428       .  A
C2334      F2335   1.353       .  S
C2339      C2340   1.430       .  A
C2339      C2344   1.397       .  A
C2339      F2346   1.347       .  S
C2340      C2341   1.440       .  A
C2341      C2342   1.394       .  A
C2341      F2348   1.353       .  S
C2342      C2343   1.395       .  A
C2342      F2347   1.358       .  S
C2343      C2344   1.400       .  A
C2344      F2345   1.359   1_545  S
C2349      C2350   1.411       .  A
C2349      C2354   1.401       .  A
C2349      F2356   1.358       .  S
C2350      C2351   1.396       .  A
C2351      C2352   1.402       .  A
C2351      F2358   1.353       .  S
C2352      C2353   1.434       .  A
C2352      F2357   1.354       .  S
C2353      C2354   1.422       .  A
C2354      F2355   1.354       .  S
C2359      C2360   1.405       .  A
C2359      C2364   1.410       .  A
C2359      F2366   1.355       .  S
C2360      C2361   1.411       .  A
C2361      C2362   1.404       .  A
C2361      F2368   1.357       .  S
C2362      C2363   1.419       .  A
C2362      F2367   1.348       .  S
C2363      C2364   1.431       .  A
C2364      F2365   1.354       .  S
C2369      C2370   1.401       .  A
C2369      C2374   1.402       .  A
C2369      F2376   1.357       .  S
C2370      C2371   1.405       .  A
C2371      C2372   1.392       .  A
C2371      F2378   1.349       .  S
C2372      C2373   1.399       .  A
C2372      F2377   1.356       .  S
C2373      C2374   1.430       .  A
C2374      F2375   1.353       .  S
C2379      C2380   1.394       .  A
C2379      C2384   1.401       .  A
C2379      F2386   1.359       .  S
C2380      C2381   1.397       .  A
C2381      C2382   1.372       .  A
C2381      F2388   1.356       .  S
C2382      C2383   1.435       .  A
C2382      F2387   1.354       .  S
C2383      C2384   1.438       .  A
C2384      F2385   1.348       .  S
C2389      C2390   1.424       .  A
C2389      C2394   1.385       .  A
C2389      F2396   1.348       .  S
C2390      C2391   1.405       .  A
C2391      C2392   1.402       .  A
C2391      F2398   1.355       .  S
C2392      C2393   1.407       .  A
C2392      F2397   1.350       .  S
C2393      C2394   1.396       .  A
C2394      F2395   1.358       .  S
C2399      C2400   1.396       .  A
C2399      C2404   1.379       .  A
C2399      F2406   1.355       .  S
C2400      C2401   1.408       .  A
C2401      C2402   1.419       .  A
C2401      F2408   1.357       .  S
C2402      C2403   1.435       .  A
C2402      F2407   1.348       .  S
C2403      C2404   1.360       .  A
C2404      F2405   1.326       .  S
C2409      C2410   1.421       .  A
C2409      C2414   1.403       .  A
C2409      F2416   1.352       .  S
C2410      C2411   1.428       .  A
C2411      C2412   1.373       .  A
C2411      F2418   1.351       .  S
C2412      C2413   1.391       .  A
C2412      F2417   1.360       .  S
C2413      C2414   1.402       .  A
C2414      F3231   1.358       .  S
F2415      C3230   1.358   1_545  S
C2419      C2420   1.406       .  A
C2419      C2424   1.405       .  A
C2419      F2426   1.350       .  S
C2420      C2421   1.393       .  A
C2421      C2422   1.399       .  A
C2421      F2428   1.358       .  S
C2422      C2423   1.431       .  A
C2422      F2427   1.355       .  S
C2423      C2424   1.391       .  A
C2424      F2425   1.344       .  S
C2429      C2430   1.420       .  A
C2429      C2434   1.397       .  A
C2429      F2436   1.351       .  S
C2430      C2431   1.397       .  A
C2431      C2432   1.410       .  A
C2431      F2438   1.357       .  S
C2432      C2433   1.413       .  A
C2432      F2437   1.357       .  S
C2433      C2434   1.405       .  A
C2434      F2435   1.358       .  S
C2439      C2440   1.425       .  A
C2439      C2444   1.407       .  A
C2439      F2446   1.353       .  S
C2440      C2441   1.430       .  A
C2441      C2442   1.388       .  A
C2441      F2448   1.346       .  S
C2442      C2443   1.397       .  A
C2442      F2447   1.360       .  S
C2443      C2444   1.407       .  A
C2444      F2445   1.358       .  S
C2449      C2497   1.630       .  S
C2449      C2554   1.585       .  S
C2449      C3246   1.591       .  S
C2449      C3256   1.571       .  S
C2450      C2494   1.569       .  S
C2450      C2588   1.617       .  S
C2450      C3226   1.575       .  S
C2450      C3239   1.584       .  S
C2451      C2555   1.601       .  S
C2451      C2589   1.642       .  S
C2451      C3206   1.575       .  S
C2451      C3219   1.577       .  S
O2452      C2467   1.243       .  A
O2452     Al2460   1.807       .  S
C2453      O2463   1.253       .  A
C2453      O2454   1.263       .  A
C2453      C3216   1.485       .  S
O2454     Al2456   1.943       .  S
O2455      C2457   1.259       .  A
O2455     Al2456   1.864       .  S
Al2456     O2464   1.854       .  S
Al2456     O2466   1.936       .  S
Al2456     O2465   1.794       .  S
C2457      O2470   1.265       .  A
C2457      C3259   1.484       .  S
O2458      C2468   1.248       .  A
O2458     Al2460   1.852       .  S
O2459      C2472   1.249       .  A
O2459     Al2469   1.867       .  S
Al2460     O2473   1.927       .  S
Al2460     O2470   1.922       .  S
Al2460     O2465   1.784       .  S
O2461      C2468   1.273       .  A
O2461     Al2469   1.958       .  S
O2462      C2471   1.266       .  A
O2462     Al2469   1.918       .  S
O2463     Al2469   1.840       .  S
O2464      C2471   1.256       .  A
O2465     Al2469   1.776       .  S
O2466      C2467   1.263       .  A
C2467      C3196   1.469       .  S
C2468      C3236   1.475       .  S
C2471      C3186   1.470       .  S
C2472      O2473   1.265       .  A
C2472      C3176   1.497       .  S
N2474      C2479   1.358       .  A
N2474      H2506   1.043       .  S
N2475      C2482   1.357       .  A
N2475      C2483   1.360       .  A
N2476      C2481   1.360       .  A
N2476      H2507   1.042       .  S
N2477      C2484   1.361       .  A
N2477      C2485   1.358       .  A
C2478      C2486   1.376       .  A
C2478      C2494   1.408       .  A
C2479      C2495   1.434       .  A
C2479      C2487   1.391       .  A
C2480      C2488   1.396   1_565  A
C2480      C2497   1.460       .  A
C2481      C2496   1.430       .  A
C2481      C2489   1.380       .  A
C2482      C2494   1.419       .  A
C2482      C2490   1.380       .  A
C2483      C2497   1.417       .  A
C2483      C2491   1.388       .  A
C2484      C2492   1.385       .  A
C2484      C2495   1.425       .  A
C2485      C2493   1.387       .  A
C2485      C2496   1.428       .  A
C2486      H2498   1.079       .  S
C2487      H2499   1.068   1_556  S
C2488      H2500   1.079       .  S
C2489      H2501   1.082       .  S
C2490      C2491   1.375       .  A
C2490      H2502   1.082       .  S
C2491      H2503   1.078       .  S
C2492      C2493   1.383       .  A
C2492      H2504   1.082       .  S
C2493      H2505   1.082       .  S
C2495      C2510   1.581       .  S
C2496      C2508   1.613       .  S
C2508      C2590   1.624       .  S
C2508      C3156   1.585   1_556  S
C2508      C3169   1.588   1_556  S
C2509      C2553   1.652       .  S
C2509      C2587   1.646       .  S
C2509      C3139   1.578   1_556  S
C2509      C3149   1.585   1_556  S
C2510      C2556   1.613       .  S
C2510      C3119   1.570   1_556  S
C2510      C3129   1.584   1_556  S
O2511      C2526   1.263       .  A
O2511     Al2519   1.914       .  S
C2512      O2522   1.278       .  A
C2512      O2513   1.251       .  A
C2512      C3166   1.492       .  S
O2513     Al2515   1.842       .  S
O2514      C2516   1.263       .  A
O2514     Al2515   1.923       .  S
Al2515     O2523   1.905       .  S
Al2515     O2525   1.844       .  S
Al2515     O2524   1.791       .  S
C2516      O2529   1.257       .  A
C2516      C3126   1.469       .  S
O2517      C2527   1.259       .  A
O2517     Al2519   1.910       .  S
O2518      C2531   1.277       .  A
O2518     Al2528   1.971       .  S
Al2519     O2532   1.846       .  S
Al2519     O2529   1.864       .  S
Al2519     O2524   1.780       .  S
O2520      C2527   1.250       .  A
O2520     Al2528   1.860       .  S
O2521      C2530   1.250       .  A
O2521     Al2528   1.854       .  S
O2522     Al2528   1.963       .  S
O2523      C2530   1.257       .  A
O2524     Al2528   1.767       .  S
O2525      C2526   1.253       .  A
C2526      C3089   1.453       .  S
C2527      C3146   1.477       .  S
C2530      C3109   1.479       .  S
C2531      O2532   1.255       .  A
C2531      C3096   1.494       .  S
N2533      C2537   1.357       .  A
N2533      H2565   1.044       .  S
N2534      C2541   1.364       .  A
N2534      C2542   1.364       .  A
N2535      C2539   1.362       .  A
N2535      H2566   1.035   1_655  S
N2536      C2543   1.362       .  A
N2536      C2544   1.360       .  A
C2537      C2545   1.403   1_655  A
C2537      C2553   1.428       .  A
C2538      C2554   1.406       .  A
C2538      C2546   1.367       .  A
C2539      C2547   1.377       .  A
C2539      C2556   1.441       .  A
C2540      C2555   1.460       .  A
C2540      C2548   1.391       .  A
C2541      C2553   1.449       .  A
C2541      C2549   1.395   1_556  A
C2542      C2556   1.421       .  A
C2542      C2550   1.379   1_556  A
C2543      C2551   1.393       .  A
C2543      C2554   1.447       .  A
C2544      C2552   1.380       .  A
C2544      C2555   1.434       .  A
C2545      H2557   1.074   1_556  S
C2546      H2558   1.079       .  S
C2547      H2559   1.079       .  S
C2548      H2560   1.069       .  S
C2549      C2550   1.365       .  A
C2549      H2561   1.079       .  S
C2550      H2562   1.081       .  S
C2551      C2552   1.381       .  A
C2551      H2563   1.080       .  S
C2552      H2564   1.082       .  S
N2567      C2572   1.369       .  A
N2567      C2571   1.371       .  A
N2567      H2599   1.037       .  S
N2568      C2575   1.374       .  A
N2568      C2576   1.375       .  A
N2569      C2574   1.364       .  A
N2569      C2573   1.364       .  A
N2569      H2600   1.036       .  S
N2570      C2577   1.367       .  A
N2570      C2578   1.367       .  A
C2571      C2579   1.380       .  A
C2571      C2587   1.451       .  A
C2572      C2588   1.460       .  A
C2572      C2580   1.393       .  A
C2573      C2581   1.392       .  A
C2573      C2590   1.451       .  A
C2574      C2589   1.441       .  A
C2574      C2582   1.377       .  A
C2575      C2587   1.441       .  A
C2575      C2583   1.343       .  A
C2576      C2590   1.458       .  A
C2576      C2584   1.368       .  A
C2577      C2585   1.381       .  A
C2577      C2588   1.426       .  A
C2578      C2586   1.388       .  A
C2578      C2589   1.436       .  A
C2579      C2580   1.364       .  A
C2579      H2591   1.078       .  S
C2580      H2592   1.076       .  S
C2581      C2582   1.373       .  A
C2581      H2593   1.077       .  S
C2582      H2594   1.075       .  S
C2583      C2584   1.336       .  A
C2583      H2595   1.042       .  S
C2584      H2596   1.055       .  S
C2585      C2586   1.364       .  A
C2585      H2597   1.079       .  S
C2586      H2598   1.076       .  S
C2601      C2673   1.607       .  S
C2601      C2739   1.627       .  S
C2601      C3079   1.584       .  S
C2602      C2672   1.609       .  S
C2602      C2708   1.614       .  S
C2602      C3046   1.581       .  S
C2602      C3056   1.575       .  S
C2603      C2705   1.626       .  S
C2603      C2742   1.637       .  S
C2603      C3036   1.579       .  S
O2604      C2619   1.251       .  A
O2604     Al2612   1.846       .  S
C2605      O2615   1.252       .  A
C2605      O2606   1.270       .  A
C2605      C3039   1.483       .  S
O2606     Al2608   1.943       .  S
O2607      C2609   1.253       .  A
O2607     Al2608   1.852       .  S
Al2608     O2616   1.865       .  S
Al2608     O2618   1.931       .  S
Al2608     O2617   1.770       .  S
C2609      O2622   1.266       .  A
C2609      C3076   1.484       .  S
O2610      C2620   1.248       .  A
O2610     Al2612   1.826       .  S
O2611      C2624   1.252       .  A
O2611     Al2621   1.874       .  S
Al2612     O2625   1.911       .  S
Al2612     O2622   1.938       .  S
Al2612     O2617   1.783       .  S
O2613      C2620   1.272       .  A
O2613     Al2621   1.953       .  S
O2614      C2623   1.267       .  A
O2614     Al2621   1.928       .  S
O2615     Al2621   1.849       .  S
O2616      C2623   1.254       .  A
O2617     Al2621   1.780       .  S
O2618      C2619   1.269       .  A
C2619      C3019   1.477       .  S
C2620      C3059   1.481       .  S
C2623      C2999   1.485       .  S
C2624      O2625   1.266       .  A
C2624      C3006   1.475       .  S
C2626      C2671   1.628       .  S
C2626      C2989   1.602       .  S
C2626      C3106   1.577       .  S
C2627      C2707   1.619       .  S
C2627      C2976   1.584       .  S
C2627      C3099   1.591       .  S
C2628      C2966   1.597       .  S
C2628      C3086   1.556       .  S
O2629      C2644   1.253   1_455  A
C2630      O2640   1.249       .  A
C2630      O2631   1.265       .  A
C2630      C2979   1.490       .  S
O2631     Al2633   1.933       .  S
O2632      C2634   1.241       .  A
Al2633     O2641   1.801       .  S
C2634      O2647   1.264       .  A
C2634      C2969   1.482       .  S
O2635      C2645   1.253       .  A
O2635     Al2637   1.830       .  S
O2636      C2649   1.246       .  A
Al2637     O2650   1.910       .  S
O2638      C2645   1.277       .  A
O2639      C2648   1.267       .  A
O2641      C2648   1.242       .  A
O2643      C2644   1.270       .  A
C2644      C3116   1.459       .  S
C2645      C2986   1.496       .  S
C2648      C3136   1.458       .  S
C2649      O2650   1.258       .  A
C2649      C3159   1.480       .  S
N2651      C2656   1.360       .  A
N2651      C2655   1.370       .  A
N2651      H2683   1.040       .  S
N2652      C2659   1.353       .  A
N2652      C2660   1.368       .  A
N2653      C2658   1.355       .  A
N2653      C2657   1.361       .  A
N2653      H2684   1.038       .  S
N2654      C2661   1.364       .  A
N2654      C2662   1.362       .  A
C2655      C2663   1.386       .  A
C2655      C2671   1.460       .  A
C2656      C2672   1.464       .  A
C2656      C2664   1.397       .  A
C2657      C2674   1.432       .  A
C2658      C2673   1.453       .  A
C2658      C2666   1.396       .  A
C2659      C2671   1.428       .  A
C2659      C2667   1.391       .  A
C2660      C2674   1.432       .  A
C2660      C2668   1.387       .  A
C2661      C2669   1.386       .  A
C2661      C2672   1.438       .  A
C2662      C2670   1.388       .  A
C2662      C2673   1.441       .  A
C2663      C2664   1.390       .  A
C2663      H2675   1.080       .  S
C2664      H2676   1.069       .  S
C2665      H2677   1.054       .  S
C2667      C2668   1.359       .  A
C2667      H2679   1.082       .  S
C2668      H2680   1.083       .  S
C2669      C2670   1.384       .  A
C2669      H2681   1.082       .  S
C2670      H2682   1.082       .  S
N2685      C2690   1.368   1_565  A
N2685      C2689   1.366   1_565  A
N2685      H2717   1.039       .  S
N2686      C2693   1.364       .  A
N2686      C2694   1.366       .  A
N2687      C2692   1.369       .  A
N2687      C2691   1.373       .  A
N2687      H2718   1.039       .  S
N2688      C2695   1.372   1_565  A
N2688      C2696   1.370       .  A
C2689      C2705   1.429   1_545  A
C2690      C2706   1.478       .  A
C2691      C2699   1.382       .  A
C2691      C2708   1.452       .  A
C2692      C2707   1.450       .  A
C2692      C2700   1.380       .  A
C2693      C2705   1.438       .  A
C2693      C2701   1.386       .  A
C2694      C2708   1.434       .  A
C2694      C2702   1.386       .  A
C2695      C2703   1.372       .  A
C2695      C2706   1.446       .  A
C2696      C2704   1.376       .  A
C2696      C2707   1.448       .  A
C2697      C2698   1.366       .  A
C2697      H2709   1.081       .  S
C2698      H2710   1.070       .  S
C2699      C2700   1.371       .  A
C2699      H2711   1.066       .  S
C2700      H2712   1.063       .  S
C2701      C2702   1.378       .  A
C2701      H2713   1.082       .  S
C2702      H2714   1.082       .  S
C2703      C2704   1.324   1_545  A
C2704      H2716   1.067       .  S
N2719      C2724   1.375       .  A
N2719      C2723   1.367       .  A
N2719      H2751   1.040       .  S
N2720      C2727   1.375       .  A
N2720      C2728   1.374       .  A
N2721      C2726   1.372   1_565  A
N2721      C2725   1.365   1_565  A
N2721      H2752   1.044       .  S
N2722      C2729   1.361       .  A
N2722      C2730   1.363   1_565  A
C2723      C2731   1.375       .  A
C2723      C2739   1.449       .  A
C2724      C2740   1.449       .  A
C2725      C2742   1.451   1_545  A
C2726      C2741   1.430       .  A
C2727      C2739   1.451       .  A
C2727      C2735   1.375       .  A
C2728      C2742   1.446       .  A
C2728      C2736   1.374       .  A
C2729      C2737   1.382       .  A
C2729      C2740   1.428       .  A
C2730      C2738   1.392   1_545  A
C2730      C2741   1.434       .  A
C2732      H2744   1.072       .  S
C2733      C2734   1.379       .  A
C2733      H2745   1.078       .  S
C2734      H2746   1.081       .  S
C2735      C2736   1.322       .  A
C2735      H2747   1.062       .  S
C2736      H2748   1.064       .  S
C2737      C2738   1.382       .  A
C2737      H2749   1.082       .  S
C2753      C2826   1.636       .  S
C2753      C2959   1.599       .  S
C2753      C3179   1.587       .  S
C2754      C2858   1.620       .  S
C2754      C2946   1.592       .  S
C2754      C3189   1.588       .  S
C2755      C2936   1.577       .  S
C2755      C3199   1.582       .  S
O2756     Al2764   1.899       .  S
C2757      O2758   1.266       .  A
C2757      C2956   1.493       .  S
O2758     Al2760   1.931       .  S
O2759     Al2760   1.859       .  S
Al2760     O2768   1.842       .  S
C2761      C2939   1.462       .  S
O2762      C2772   1.265       .  A
O2762     Al2764   1.888       .  S
O2763     Al2773   1.890       .  S
Al2764     O2777   1.889       .  S
Al2764     O2774   1.916       .  S
O2765      C2772   1.271       .  A
O2766     Al2773   1.905       .  S
O2767     Al2773   1.905       .  S
O2768      C2775   1.252       .  A
O2769     Al2773   1.781       .  S
O2770      C2771   1.267       .  A
C2771      C3249   1.485       .  S
C2772      C2949   1.490       .  S
C2775      C3229   1.462       .  S
C2776      O2777   1.255       .  A
C2776      C3209   1.468       .  S
C2778      C2860   1.610       .  S
C2778      C2893   1.630       .  S
C2778      C2926   1.587       .  S
C2779      C2824   1.618       .  S
C2779      C2894   1.610       .  S
C2779      C2916   1.588       .  S
C2780      C2825   1.639       .  S
C2780      C2857   1.627       .  S
C2780      C2906   1.580       .  S
C2780      C3009   1.577       .  S
O2781      C2796   1.252       .  A
O2781     Al2789   1.845       .  S
C2782      O2792   1.252       .  A
C2782      O2783   1.265       .  A
C2782      C2909   1.483       .  S
O2783     Al2785   1.933       .  S
O2784      C2786   1.253       .  A
O2784     Al2785   1.846       .  S
Al2785     O2793   1.853       .  S
Al2785     O2795   1.924       .  S
Al2785     O2794   1.782       .  S
C2786      O2799   1.267       .  A
C2786      C2919   1.492       .  S
O2787      C2797   1.249       .  A
O2787     Al2789   1.824       .  S
O2788      C2801   1.257       .  A
O2788     Al2798   1.897       .  S
Al2789     O2802   1.919       .  S
Al2789     O2799   1.945       .  S
Al2789     O2794   1.784       .  S
O2790      C2797   1.269       .  A
O2790     Al2798   1.949       .  S
O2791      C2800   1.266       .  A
O2791     Al2798   1.913       .  S
O2792     Al2798   1.852       .  S
O2793      C2800   1.252       .  A
O2794     Al2798   1.782       .  S
O2795      C2796   1.264       .  A
C2796      C3066   1.472       .  S
C2797      C2929   1.493       .  S
C2800      C3049   1.470       .  S
C2801      O2802   1.264       .  A
C2801      C3029   1.494       .  S
N2803      C2808   1.365       .  A
N2803      C2807   1.362   1_655  A
N2803      H2835   1.041       .  S
N2804      C2811   1.374       .  A
N2804      C2812   1.373       .  A
N2805      C2810   1.368       .  A
N2805      C2809   1.373       .  A
N2805      H2836   1.045       .  S
N2806      C2813   1.376       .  A
N2806      C2814   1.370       .  A
C2807      C2823   1.420       .  A
C2808      C2824   1.443       .  A
C2808      C2816   1.388   1_655  A
C2809      C2817   1.378       .  A
C2809      C2826   1.437       .  A
C2810      C2825   1.454       .  A
C2810      C2818   1.395       .  A
C2811      C2823   1.454   1_655  A
C2811      C2819   1.376       .  A
C2812      C2826   1.436       .  A
C2812      C2820   1.360       .  A
C2813      C2821   1.377       .  A
C2813      C2824   1.451       .  A
C2814      C2822   1.376       .  A
C2814      C2825   1.448       .  A
C2815      H2827   1.051       .  S
C2816      H2828   1.074       .  S
C2817      C2818   1.385       .  A
C2817      H2829   1.081       .  S
C2818      H2830   1.077       .  S
C2819      C2820   1.320       .  A
C2819      H2831   1.063       .  S
C2820      H2832   1.046       .  S
C2821      C2822   1.326       .  A
C2821      H2833   1.070       .  S
C2822      H2834   1.062       .  S
N2837      C2842   1.354       .  A
N2837      C2841   1.367       .  A
N2837      H2869   1.037       .  S
N2838      C2845   1.366       .  A
N2838      C2846   1.358       .  A
N2839      C2844   1.366       .  A
N2839      C2843   1.368       .  A
N2839      H2870   1.035       .  S
N2840      C2847   1.380       .  A
N2840      C2848   1.378       .  A
C2841      C2849   1.391       .  A
C2841      C2857   1.451       .  A
C2842      C2858   1.432       .  A
C2842      C2850   1.380       .  A
C2843      C2851   1.367       .  A
C2843      C2860   1.437       .  A
C2844      C2859   1.474       .  A
C2844      C2852   1.405       .  A
C2845      C2857   1.434       .  A
C2845      C2853   1.385       .  A
C2846      C2860   1.435       .  A
C2846      C2854   1.389       .  A
C2847      C2855   1.362       .  A
C2847      C2858   1.449       .  A
C2848      C2856   1.360       .  A
C2848      C2859   1.461       .  A
C2849      C2850   1.369       .  A
C2849      H2861   1.077       .  S
C2850      H2862   1.079       .  S
C2851      C2852   1.364       .  A
C2851      H2863   1.065       .  S
C2853      C2854   1.377       .  A
C2853      H2865   1.082       .  S
C2854      H2866   1.083       .  S
C2855      C2856   1.337       .  A
C2855      H2867   1.049       .  S
C2856      H2868   1.051       .  S
N2871      C2876   1.389       .  A
N2871      C2875   1.384       .  A
N2871      H2903   1.044       .  S
N2872      C2879   1.356   1_655  A
N2872      C2880   1.368       .  A
N2873      C2878   1.357       .  A
N2873      C2877   1.342       .  A
N2873      H2904   1.043       .  S
N2874      C2881   1.365       .  A
N2874      C2882   1.372       .  A
C2875      C2883   1.364       .  A
C2875      C2891   1.455   1_655  A
C2876      C2892   1.473       .  A
C2876      C2884   1.374       .  A
C2877      C2885   1.387       .  A
C2877      C2894   1.413       .  A
C2878      C2893   1.418       .  A
C2878      C2886   1.384       .  A
C2879      C2891   1.430       .  A
C2880      C2894   1.415       .  A
C2880      C2888   1.380       .  A
C2881      C2889   1.384       .  A
C2881      C2892   1.444       .  A
C2882      C2890   1.390       .  A
C2882      C2893   1.455       .  A
C2883      C2884   1.332       .  A
C2883      H2895   1.054       .  S
C2884      H2896   1.046       .  S
C2885      C2886   1.385       .  A
C2885      H2897   1.082       .  S
C2886      H2898   1.075       .  S
C2887      H2899   1.077       .  S
C2888      H2900   1.081       .  S
C2889      C2890   1.368       .  A
C2890      H2902   1.071       .  S
C2905      C2906   1.428       .  A
C2905      C2910   1.398       .  A
C2905      F2912   1.347       .  S
C2906      C2907   1.420       .  A
C2907      C2908   1.393       .  A
C2907      F2914   1.350       .  S
C2908      C2909   1.402       .  A
C2908      F2913   1.355       .  S
C2909      C2910   1.396       .  A
C2910      F2911   1.358       .  S
C2915      C2916   1.428       .  A
C2915      C2920   1.412       .  A
C2915      F2922   1.354       .  S
C2916      C2917   1.431       .  A
C2917      C2918   1.382       .  A
C2917      F2924   1.354       .  S
C2918      C2919   1.400       .  A
C2918      F2923   1.357       .  S
C2919      C2920   1.405       .  A
C2920      F2921   1.357       .  S
C2925      C2926   1.439       .  A
C2925      C2930   1.415       .  A
C2925      F2932   1.353       .  S
C2926      C2927   1.416       .  A
C2927      C2928   1.385       .  A
C2927      F2934   1.328       .  S
C2928      C2929   1.398       .  A
C2928      F2933   1.358       .  S
C2929      C2930   1.399       .  A
C2930      F2931   1.355       .  S
C2935      C2936   1.439       .  A
C2935      C2940   1.382       .  A
C2936      C2937   1.426       .  A
C2937      C2938   1.398       .  A
C2937      F2944   1.356   1_565  S
C2938      C2939   1.398       .  A
C2938      F2943   1.356   1_565  S
C2939      C2940   1.389       .  A
C2945      C2946   1.430       .  A
C2945      C2950   1.405       .  A
C2945      F2952   1.350       .  S
C2946      C2947   1.428       .  A
C2947      C2948   1.392       .  A
C2947      F2954   1.354       .  S
C2948      C2949   1.399       .  A
C2948      F2953   1.350       .  S
C2949      C2950   1.402       .  A
C2955      C2956   1.406       .  A
C2955      C2960   1.405       .  A
C2955      F2962   1.358       .  S
C2956      C2957   1.403       .  A
C2957      C2958   1.403       .  A
C2958      C2959   1.432       .  A
C2958      F2963   1.357   1_565  S
C2959      C2960   1.431       .  A
C2960      F2961   1.358       .  S
C2965      C2966   1.424       .  A
C2965      C2970   1.389       .  A
C2965      F2972   1.353       .  S
C2966      C2967   1.439       .  A
C2967      C2968   1.399       .  A
C2967      F2974   1.346       .  S
C2968      C2969   1.391       .  A
C2968      F2973   1.358   1_655  S
C2969      C2970   1.405       .  A
C2970      F2971   1.355       .  S
C2975      C2976   1.421       .  A
C2975      C2980   1.397       .  A
C2975      F2982   1.354   1_655  S
C2976      C2977   1.432       .  A
C2977      C2978   1.401       .  A
C2977      F2984   1.355       .  S
C2978      C2979   1.398       .  A
C2978      F2983   1.356       .  S
C2979      C2980   1.406       .  A
C2985      C2986   1.398       .  A
C2985      C2990   1.414       .  A
C2985      F2992   1.353       .  S
C2986      C2987   1.399       .  A
C2987      C2988   1.386       .  A
C2987      F2994   1.360       .  S
C2988      C2989   1.428       .  A
C2988      F2993   1.340       .  S
C2989      C2990   1.441       .  A
C2990      F2991   1.353       .  S
C2995      C2996   1.431   1_565  A
C2995      C3000   1.396       .  A
C2995      F3002   1.352   1_565  S
C2996      C2997   1.438       .  A
C2997      C2998   1.394   1_545  A
C2998      C2999   1.395       .  A
C2998      F3003   1.358       .  S
C2999      C3000   1.404       .  A
C3000      F3001   1.359       .  S
C3005      C3006   1.394       .  A
C3005      C3010   1.381       .  A
C3005      F3012   1.359       .  S
C3006      C3007   1.415       .  A
C3007      C3008   1.408       .  A
C3007      F3014   1.357       .  S
C3008      C3009   1.402       .  A
C3008      F3013   1.355       .  S
C3009      C3010   1.435       .  A
C3010      F3011   1.353       .  S
C3015      C3016   1.440       .  A
C3015      C3020   1.388       .  A
C3015      F3022   1.353       .  S
C3016      C3017   1.425       .  A
C3017      C3018   1.395       .  A
C3017      F3024   1.350       .  S
C3018      C3019   1.407       .  A
C3018      F3023   1.358       .  S
C3019      C3020   1.391       .  A
C3020      F3021   1.359       .  S
C3025      C3026   1.426       .  A
C3025      C3030   1.403       .  A
C3025      F3032   1.355       .  S
C3026      C3027   1.397       .  A
C3027      C3028   1.407       .  A
C3027      F3034   1.357       .  S
C3028      C3029   1.413       .  A
C3028      F3033   1.354       .  S
C3029      C3030   1.408       .  A
C3030      F3031   1.357       .  S
C3035      C3036   1.430       .  A
C3035      C3040   1.397       .  A
C3035      F3042   1.348       .  S
C3036      C3037   1.419       .  A
C3037      C3038   1.395       .  A
C3037      F3044   1.353       .  S
C3038      C3039   1.405       .  A
C3038      F3043   1.355       .  S
C3039      C3040   1.396       .  A
C3040      F3041   1.358       .  S
C3045      C3046   1.439       .  A
C3045      C3050   1.385       .  A
C3045      F3052   1.351       .  S
C3046      C3047   1.433       .  A
C3047      C3048   1.393       .  A
C3047      F3054   1.353       .  S
C3048      C3049   1.399       .  A
C3048      F3053   1.358       .  S
C3049      C3050   1.390       .  A
C3050      F3051   1.359       .  S
C3055      C3056   1.435       .  A
C3055      C3060   1.402       .  A
C3055      F3062   1.352       .  S
C3056      C3057   1.426       .  A
C3057      C3058   1.391       .  A
C3057      F3064   1.350       .  S
C3058      C3059   1.400       .  A
C3058      F3063   1.357       .  S
C3059      C3060   1.392       .  A
C3060      F3061   1.355       .  S
C3065      C3066   1.393       .  A
C3065      C3070   1.382       .  A
C3065      F3072   1.360       .  S
C3066      C3067   1.399       .  A
C3067      C3068   1.401       .  A
C3067      F3074   1.357       .  S
C3068      C3069   1.431       .  A
C3068      F3073   1.352       .  S
C3069      C3070   1.439       .  A
C3070      F3071   1.354       .  S
C3075      C3076   1.401       .  A
C3075      C3080   1.406       .  A
C3075      F3082   1.355       .  S
C3076      C3077   1.400       .  A
C3077      C3078   1.388       .  A
C3077      F3084   1.359       .  S
C3078      C3079   1.429       .  A
C3078      F3083   1.355       .  S
C3079      C3080   1.426       .  A
C3080      F3081   1.352       .  S
C3085      C3086   1.425       .  A
C3085      C3090   1.399       .  A
C3085      F3092   1.354       .  S
C3086      C3087   1.435       .  A
C3087      C3088   1.371       .  A
C3087      F3094   1.354       .  S
C3088      C3089   1.386       .  A
C3088      F3093   1.360       .  S
C3089      C3090   1.399       .  A
C3090      F3091   1.355       .  S
C3095      C3096   1.403       .  A
C3095      C3100   1.392       .  A
C3095      F3102   1.358       .  S
C3096      C3097   1.397       .  A
C3097      C3098   1.408       .  A
C3097      F3104   1.356       .  S
C3098      C3099   1.442       .  A
C3098      F3103   1.352       .  S
C3099      C3100   1.431       .  A
C3100      F3101   1.353       .  S
C3105      C3106   1.431       .  A
C3105      C3110   1.386       .  A
C3105      F3112   1.350       .  S
C3106      C3107   1.426       .  A
C3107      C3108   1.403       .  A
C3107      F3114   1.349       .  S
C3108      C3109   1.402       .  A
C3108      F3113   1.358       .  S
C3109      C3110   1.398       .  A
C3110      F3111   1.358       .  S
C3115      C3116   1.382       .  A
C3115      C3120   1.378       .  A
C3115      F3122   1.360       .  S
C3116      C3117   1.409       .  A
C3117      C3118   1.414       .  A
C3117      F3124   1.357       .  S
C3118      C3119   1.410       .  A
C3118      F3123   1.355   1_554  S
C3119      C3120   1.434       .  A
C3120      F3121   1.351       .  S
C3125      C3126   1.395       .  A
C3125      C3130   1.403       .  A
C3125      F3132   1.358       .  S
C3126      C3127   1.398       .  A
C3127      C3128   1.385       .  A
C3127      F3134   1.354       .  S
C3128      C3129   1.388       .  A
C3128      F3133   1.313       .  S
C3129      C3130   1.436       .  A
C3130      F3131   1.346       .  S
C3135      C3136   1.408       .  A
C3135      C3140   1.388       .  A
C3135      F3142   1.358       .  S
C3136      C3137   1.403       .  A
C3137      C3138   1.401       .  A
C3137      F3144   1.355   1_655  S
C3138      C3139   1.398       .  A
C3138      F3143   1.358   1_554  S
C3139      C3140   1.423       .  A
C3140      F3141   1.354       .  S
C3145      C3146   1.400       .  A
C3145      C3150   1.393       .  A
C3145      F3152   1.353       .  S
C3146      C3147   1.394       .  A
C3147      C3148   1.391       .  A
C3147      F3154   1.358       .  S
C3148      C3149   1.426       .  A
C3148      F3153   1.344       .  S
C3149      C3150   1.428       .  A
C3150      F3151   1.353       .  S
C3155      C3156   1.429       .  A
C3155      C3160   1.399       .  A
C3155      F3162   1.347       .  S
C3156      C3157   1.440       .  A
C3157      C3158   1.394       .  A
C3157      F3164   1.353       .  S
C3158      C3159   1.395       .  A
C3158      F3163   1.359       .  S
C3159      C3160   1.400       .  A
C3160      F3161   1.359       .  S
C3165      C3166   1.411       .  A
C3165      C3170   1.401       .  A
C3165      F3172   1.358       .  S
C3166      C3167   1.394       .  A
C3167      C3168   1.400       .  A
C3167      F3174   1.354       .  S
C3168      C3169   1.433       .  A
C3168      F3173   1.354       .  S
C3169      C3170   1.423       .  A
C3170      F3171   1.354       .  S
C3175      C3176   1.405       .  A
C3175      C3180   1.410       .  A
C3175      F3182   1.354       .  S
C3176      C3177   1.412       .  A
C3177      C3178   1.405       .  A
C3177      F3184   1.356       .  S
C3178      C3179   1.420       .  A
C3178      F3183   1.348       .  S
C3179      C3180   1.429       .  A
C3180      F3181   1.354       .  S
C3185      C3186   1.400       .  A
C3185      C3190   1.402       .  A
C3185      F3192   1.357       .  S
C3186      C3187   1.406       .  A
C3187      C3188   1.392       .  A
C3187      F3194   1.347       .  S
C3188      C3189   1.399       .  A
C3188      F3193   1.355       .  S
C3189      C3190   1.430       .  A
C3190      F3191   1.353       .  S
C3195      C3196   1.395       .  A
C3195      C3200   1.401       .  A
C3195      F3202   1.359       .  S
C3196      C3197   1.397       .  A
C3197      C3198   1.371       .  A
C3197      F3204   1.355       .  S
C3198      C3199   1.435       .  A
C3198      F3203   1.353       .  S
C3199      C3200   1.438       .  A
C3200      F3201   1.348       .  S
C3205      C3206   1.423       .  A
C3205      C3210   1.387       .  A
C3205      F3212   1.349       .  S
C3206      C3207   1.403       .  A
C3207      C3208   1.401       .  A
C3207      F3214   1.355       .  S
C3208      C3209   1.407       .  A
C3208      F3213   1.350       .  S
C3209      C3210   1.397       .  A
C3210      F3211   1.358       .  S
C3215      C3216   1.398       .  A
C3215      C3220   1.379       .  A
C3215      F3222   1.356       .  S
C3216      C3217   1.409       .  A
C3217      C3218   1.420       .  A
C3217      F3224   1.357       .  S
C3218      C3219   1.435       .  A
C3218      F3223   1.348       .  S
C3219      C3220   1.360       .  A
C3220      F3221   1.327       .  S
C3225      C3226   1.421       .  A
C3225      C3230   1.403       .  A
C3225      F3232   1.351   1_565  S
C3226      C3227   1.430       .  A
C3227      C3228   1.376       .  A
C3227      F3234   1.351       .  S
C3228      C3229   1.392       .  A
C3228      F3233   1.360       .  S
C3229      C3230   1.402       .  A
C3235      C3236   1.408       .  A
C3235      C3240   1.408       .  A
C3235      F3242   1.350       .  S
C3236      C3237   1.394       .  A
C3237      C3238   1.399       .  A
C3237      F3244   1.357       .  S
C3238      C3239   1.429       .  A
C3238      F3243   1.355       .  S
C3239      C3240   1.393       .  A
C3240      F3241   1.346       .  S
C3245      C3246   1.422       .  A
C3245      C3250   1.397       .  A
C3245      F3252   1.351       .  S
C3246      C3247   1.396       .  A
C3247      C3248   1.410       .  A
C3247      F3254   1.357       .  S
C3248      C3249   1.414       .  A
C3248      F3253   1.357   1_565  S
C3249      C3250   1.404       .  A
C3250      F3251   1.358       .  S
C3255      C3256   1.424       .  A
C3255      C3260   1.405       .  A
C3255      F3262   1.352       .  S
C3256      C3257   1.431       .  A
C3257      C3258   1.388       .  A
C3257      F3264   1.347       .  S
C3258      C3259   1.398       .  A
C3258      F3263   1.360       .  S
C3259      C3260   1.405       .  A
C3260      F3261   1.357       .  S
