geometry optimzed in LAMMPS
_audit_creation_date              2020-11-30 
_audit_creation_method            'lammps2cif' 
_symmetry_space_group_name_H-M    'P1' 
_symmetry_Int_Tables_number       1 
_symmetry_cell_setting            triclinic 
loop_ 
_symmetry_equiv_pos_as_xyz 
  x,y,z 
_cell_length_a                    48.45205623 
_cell_length_b                    48.31015773341298 
_cell_length_c                    122.57051017265029 
_cell_angle_alpha                 89.96172387341417 
_cell_angle_beta                  90.03123665451379 
_cell_angle_gamma                 120.55657241871907 
loop_ 
_atom_site_label 
_atom_site_type_symbol 
_atom_site_fract_x 
_atom_site_fract_y 
_atom_site_fract_z 
_atom_site_charge 
C1          C  0.16100722  0.83043036  0.90076068     0.86400
C2          C  0.13877519  0.80115769  0.90800551    -0.53900
C3          C  0.15307596  0.78532260  0.91228111     0.09300
C4          C  0.18820697  0.79989425  0.90864780     0.20200
C5          C  0.19027784  0.85121596  0.90804102    -0.54600
C6          C  0.20463301  0.83531419  0.91213159     0.09400
C7          C  0.17334462  0.81647076  0.89201011    -0.54100
C8          C  0.18763864  0.80053106  0.89610826     0.10000
H9          H  0.11386585  0.79297460  0.90956722     0.14500
H10         H  0.20029126  0.78753172  0.91200542     0.00200
H11         H  0.19905027  0.87643909  0.90968089     0.14800
H12         H  0.17089112  0.81899055  0.88331343     0.14600
C13         C  0.68462269  0.83555396  0.90109669     0.86400
C14         C  0.67813544  0.85895145  0.90768655    -0.53900
C15         C  0.64848479  0.84474051  0.91241006     0.09300
C16         C  0.62784102  0.80856007  0.91005372     0.20200
C17         C  0.67787470  0.80846542  0.90913040    -0.54600
C18         C  0.64831931  0.79429112  0.91395775     0.09400
C19         C  0.65682278  0.82018506  0.89287421    -0.54100
C20         C  0.62709922  0.80602290  0.89752412     0.10000
H21         H  0.69490896  0.88439501  0.90863438     0.14500
H22         H  0.60363996  0.79738022  0.91374654     0.00200
H23         H  0.69528951  0.80115503  0.91072159     0.14800
H24         H  0.66039396  0.82101795  0.88410526     0.14600
C25         C  0.16618005  0.30799107  0.90134012     0.86400
C26         C  0.19549061  0.31649981  0.90855461    -0.53900
C27         C  0.21096219  0.34731349  0.91246974     0.09300
C28         C  0.19570129  0.36690320  0.90872782     0.20200
C29         C  0.14508564  0.31600650  0.90858931    -0.54600
C30         C  0.16062997  0.34681048  0.91252041     0.09400
C31         C  0.17887816  0.33383467  0.89241191    -0.54100
C32         C  0.19448334  0.36465868  0.89620435     0.10000
H33         H  0.20297566  0.29935788  0.91049850     0.14500
H34         H  0.20829547  0.39196057  0.91178886     0.00200
H35         H  0.12076640  0.29891113  0.91099417     0.14800
H36         H  0.17561956  0.32803093  0.88377353     0.14600
O37         O  0.33599604  0.61381620  0.80413271    -0.85500
O38         O  0.39483371  0.66669603  0.80939918    -0.82500
C39         C  0.39976648  0.68983823  0.80324395     0.98000
O40         O  0.38261699  0.70250116  0.80410942    -0.82500
O41         O  0.32964278  0.70775864  0.80908387    -0.85200
C42         C  0.30659359  0.68887564  0.80295594     1.02500
O43         O  0.29398624  0.65882485  0.80397626    -0.78000
O44         O  0.28761470  0.60024130  0.80952164    -0.78100
C45         C  0.30599934  0.59592223  0.80331188     1.02500
O46         O  0.32242540  0.59896484  0.82684184    -0.85500
O47         O  0.37825840  0.65428203  0.83204608    -0.82500
C48         C  0.39801372  0.68387165  0.83320653     0.98000
O49         O  0.39703316  0.70415759  0.82690506    -0.82600
O50         O  0.34175243  0.70463365  0.83183490    -0.85200
C51         C  0.31226119  0.69470164  0.83283314     1.02500
O52         O  0.29212367  0.67295574  0.82657683    -0.78000
O53         O  0.29185045  0.61763839  0.83216450    -0.78100
C54         C  0.30188696  0.59832465  0.83337082     1.02500
Cr55       Cr  0.35634394  0.63538092  0.81806509     1.93700
Cr56       Cr  0.36081069  0.70124419  0.81796396     1.93200
Cr57       Cr  0.29486778  0.63898416  0.81803331     1.39100
O58         O  0.33737233  0.65858651  0.81796931    -1.23200
N59         N  0.48833891  0.97116242  0.97770249    -0.36700
N60         N  0.46347561  0.00292133  0.99126903    -0.57300
N61         N  0.51921110  0.02565042  0.00541210    -0.36700
N62         N  0.54606652  0.99761598  0.99094472    -0.57300
C63         C  0.46428156  0.96866411  0.97136778     0.26900
C64         C  0.50765551  0.96568163  0.97121573     0.26900
C65         C  0.50607758  0.04251891  0.00936240     0.26900
C66         C  0.54969217  0.03991493  0.00916283     0.26900
C67         C  0.43716956  0.98422483  0.98517106     0.35500
C68         C  0.45343081  0.01288427  0.99990063     0.35500
C69         C  0.55053238  0.97716931  0.98468921     0.35500
C70         C  0.56710743  0.00638429  0.99930080     0.35500
C71         C  0.46842412  0.96164089  0.96073975    -0.22000
C72         C  0.49579136  0.95977340  0.96064161    -0.22000
C73         C  0.52849122  0.06779829  0.01569390    -0.22000
C74         C  0.55598303  0.06610934  0.01558638    -0.22000
C75         C  0.41034913  0.98242744  0.98991416    -0.23100
C76         C  0.42066184  0.00060822  0.99925316    -0.23100
C77         C  0.57459936  0.97306127  0.98907166    -0.23100
C78         C  0.58518882  0.99167571  0.99830237    -0.23100
C79         C  0.43744441  0.97015274  0.97509927    -0.18400
C80         C  0.53447091  0.96376270  0.97473305    -0.18400
C81         C  0.57123633  0.02865792  0.00753188    -0.18400
C82         C  0.47377247  0.03436605  0.00801639    -0.18400
H83         H  0.45311492  0.95788994  0.95379008     0.14500
H84         H  0.50565277  0.95437102  0.95358870     0.14500
H85         H  0.52528287  0.08544139  0.02005203     0.14500
H86         H  0.57801135  0.08217768  0.01984383     0.14500
H87         H  0.38591030  0.96939155  0.98696382     0.12800
H88         H  0.40573609  0.00435707  0.00491483     0.12800
H89         H  0.58370849  0.95830363  0.98594261     0.12800
H90         H  0.60403019  0.99405840  0.00366481     0.12800
H91         H  0.48926985  0.97246821  0.98616754     0.26000
H92         H  0.50692696  0.00354226  0.00151002     0.26000
C93         C  0.32252916  0.15114195  0.08468703     0.86400
C94         C  0.32841557  0.17808163  0.07663967    -0.53900
C95         C  0.35936720  0.19616025  0.07290274     0.09300
C96         C  0.38146590  0.18460646  0.07759014     0.20200
C97         C  0.33410106  0.13121288  0.07842113    -0.54600
C98         C  0.36483567  0.14865839  0.07466610     0.09400
C99         C  0.34760159  0.16804401  0.09372505    -0.54100
C100        C  0.37848516  0.18564871  0.09007792     0.10000
H101        H  0.30907204  0.18173342  0.07412100     0.14500
H102        H  0.40669732  0.19797910  0.07489096     0.00200
H103        H  0.31942605  0.10593831  0.07653428     0.14800
H104        H  0.34120596  0.16655105  0.10228286     0.14600
C105        C  0.85419927  0.66940469  0.08412277     0.86400
C106        C  0.87317141  0.65909881  0.07671386    -0.53900
C107        C  0.85547703  0.62854925  0.07272150     0.09300
C108        C  0.82029982  0.61095671  0.07649626     0.20200
C109        C  0.82565183  0.66381173  0.07699367    -0.54600
C110        C  0.80787764  0.63328283  0.07298834     0.09400
C111        C  0.83948548  0.64331066  0.09296832    -0.54100
C112        C  0.82151994  0.61254468  0.08910005     0.10000
H113        H  0.89806313  0.67439384  0.07447804     0.14500
H114        H  0.80566049  0.58639212  0.07312368     0.00200
H115        H  0.82047278  0.68265439  0.07506578     0.14800
H116        H  0.84360355  0.64908220  0.10158703     0.14600
C117        C  0.83490635  0.14773538  0.08694327     0.86400
C118        C  0.80627631  0.12623554  0.07939153    -0.53900
C119        C  0.79157926  0.14157250  0.07508101     0.09300
C120        C  0.80675311  0.17688370  0.07860187     0.20200
C121        C  0.85690328  0.17693487  0.07981489    -0.54600
C122        C  0.84225927  0.19211403  0.07534583     0.09400
C123        C  0.82074188  0.16048836  0.09544228    -0.54100
C124        C  0.80591118  0.17568470  0.09114938     0.10000
H125        H  0.79750934  0.10116936  0.07765423     0.14500
H126        H  0.79465621  0.18895999  0.07495307     0.00200
H127        H  0.88178750  0.18438768  0.07823565     0.14800
H128        H  0.82217738  0.15740115  0.10416116     0.14600
O129        O  0.60941964  0.31145458  0.18036405    -0.85500
O130        O  0.66706636  0.36587646  0.18569108    -0.82500
C131        C  0.69706868  0.38414379  0.18650368     0.98000
O132        O  0.71566355  0.38182075  0.17979815    -0.82500
O133        O  0.71367390  0.32441148  0.18325596    -0.85200
C134        C  0.70171617  0.29436706  0.18383984     1.02500
O135        O  0.67881512  0.27585956  0.17766017    -0.78000
O136        O  0.62552326  0.27776025  0.18445161    -0.78100
C137        C  0.60706121  0.28859999  0.18611930     1.02500
O138        O  0.62288111  0.32706041  0.15762679    -0.85500
O139        O  0.67754014  0.38416700  0.16327105    -0.82500
C140        C  0.69905418  0.38827204  0.15654310     0.98000
O141        O  0.71059331  0.37000415  0.15672921    -0.82600
O142        O  0.71344125  0.31507414  0.16011407    -0.85200
C143        C  0.69335750  0.29344766  0.15380768     1.02500
O144        O  0.66366997  0.28093771  0.15550355    -0.78000
O145        O  0.60768090  0.27747943  0.16217607    -0.78100
C146        C  0.60477266  0.29717895  0.15619473     1.02500
Cr147      Cr  0.64596997  0.34532918  0.17164886     1.93700
Cr148      Cr  0.70979297  0.34601037  0.17002537     1.93200
Cr149      Cr  0.64574765  0.28163606  0.17001065     1.39100
O150        O  0.66723024  0.32435356  0.17057999    -1.23200
N151        N  0.96826472  0.46944150  0.00420795    -0.36700
N152        N  0.98903624  0.43430157  0.99072525    -0.57300
N153        N  0.02353877  0.49174997  0.97700899    -0.36700
N154        N  0.99903592  0.52480488  0.98974097    -0.57300
C155        C  0.95029345  0.43930618  0.00822817     0.26900
C156        C  0.95430266  0.48624941  0.00741956     0.26900
C157        C  0.02474003  0.46922876  0.97082240     0.26900
C158        C  0.03044444  0.51694119  0.97039242     0.26900
C159        C  0.97866281  0.41455530  0.99950546     0.35500
C160        C  0.00721635  0.42602246  0.98477352     0.35500
C161        C  0.99059815  0.53767412  0.99793252     0.35500
C162        C  0.02042576  0.54968205  0.98356807     0.35500
C163        C  0.92447477  0.43685044  0.01396067    -0.22000
C164        C  0.92696778  0.46645299  0.01343416    -0.22000
C165        C  0.03230302  0.48017811  0.96015132    -0.22000
C166        C  0.03602594  0.51034196  0.95989475    -0.22000
C167        C  0.99002233  0.39341319  0.99905961    -0.23100
C168        C  0.00801326  0.40060015  0.98970092    -0.23100
C169        C  0.00665927  0.57087540  0.99695043    -0.23100
C170        C  0.02553378  0.57848315  0.98781845    -0.23100
C171        C  0.95823104  0.41491363  0.00768293    -0.18400
C172        C  0.96704408  0.51960339  0.00584576    -0.18400
C173        C  0.03353830  0.54639065  0.97372697    -0.18400
C174        C  0.02208580  0.44040044  0.97475054    -0.18400
H175        H  0.90601688  0.41600458  0.01822804     0.14500
H176        H  0.91079258  0.47282638  0.01722955     0.14500
H177        H  0.03530450  0.46788961  0.95328020     0.14500
H178        H  0.04234218  0.52575045  0.95280112     0.14500
H179        H  0.98599486  0.37486822  0.00487430     0.12800
H180        H  0.02049092  0.38865144  0.98691091     0.12800
H181        H  0.00482434  0.58786217  0.00220328     0.12800
H182        H  0.04101791  0.60243112  0.98462873     0.12800
H183        H  0.99095776  0.47908065  0.00079102     0.26000
H184        H  0.02210283  0.49154760  0.98547297     0.26000
N185        N  0.49208301  0.51399338  0.98124839    -0.36700
N186        N  0.54915047  0.54155993  0.99484881    -0.57300
N187        N  0.52338625  0.47976815  0.00585227    -0.36700
N188        N  0.46431543  0.45370856  0.99304347    -0.57300
C189        C  0.50554643  0.54550123  0.97867792     0.26900
C190        C  0.46177377  0.49883597  0.97733356     0.26900
C191        C  0.54904108  0.49861459  0.01224447     0.26900
C192        C  0.50380756  0.45284623  0.01162426     0.26900
C193        C  0.55876270  0.56544577  0.98742506     0.35500
C194        C  0.57565384  0.54727572  0.00039988     0.35500
C195        C  0.44314422  0.44417698  0.98468819     0.35500
C196        C  0.45860720  0.42672260  0.99832183     0.35500
C197        C  0.48342451  0.55038222  0.97311311    -0.22000
C198        C  0.45580196  0.52097175  0.97229833    -0.22000
C199        C  0.54589535  0.48334361  0.02213551    -0.22000
C200        C  0.51736204  0.45459579  0.02176697    -0.22000
C201        C  0.59141067  0.58674390  0.98838893    -0.23100
C202        C  0.60214802  0.57515420  0.99657620    -0.23100
C203        C  0.42373548  0.41100481  0.98471696    -0.23100
C204        C  0.43340358  0.39996310  0.99339286    -0.23100
C205        C  0.53813738  0.56920823  0.98021061    -0.18400
C206        C  0.44031839  0.46522187  0.97734278    -0.18400
C207        C  0.47486451  0.42599853  0.00781857    -0.18400
C208        C  0.57591964  0.52861005  0.00925397    -0.18400
H209        H  0.48695352  0.57263863  0.96972814     0.14500
H210        H  0.43399048  0.51629997  0.96824513     0.14500
H211        H  0.56241232  0.49204915  0.02894544     0.14500
H212        H  0.50778522  0.43694568  0.02825032     0.14500
H213        H  0.60596374  0.60845592  0.98372923     0.12800
H214        H  0.62664564  0.58613484  0.99941595     0.12800
H215        H  0.40451813  0.39625535  0.97912064     0.12800
H216        H  0.42316077  0.37504783  0.99575652     0.12800
H217        H  0.50420298  0.50279590  0.98406358     0.26000
H218        H  0.52109521  0.48351159  0.99763704     0.26000
C219        C  0.98496110  0.47393063  0.41893982     0.86400
C220        C  0.99340157  0.50289623  0.41146146    -0.53900
C221        C  0.02327120  0.51684158  0.40685518     0.09300
C222        C  0.04246073  0.50096010  0.41049008     0.20200
C223        C  0.99092684  0.45129307  0.41177528    -0.54600
C224        C  0.02100198  0.46534211  0.40732156     0.09400
C225        C  0.01206922  0.48727046  0.42739322    -0.54100
C226        C  0.04215817  0.50123683  0.42305688     0.10000
H227        H  0.97757383  0.51198925  0.40986002     0.14500
H228        H  0.06696526  0.51197953  0.40708794     0.00200
H229        H  0.97263334  0.42646064  0.41025394     0.14800
H230        H  0.00768123  0.48552964  0.43612554     0.14600
C231        C  0.51373486  0.49282141  0.41977477     0.86400
C232        C  0.48344339  0.46948340  0.41328980    -0.53900
C233        C  0.46745077  0.48318304  0.40874025     0.09300
C234        C  0.48276403  0.51921016  0.41154394     0.20200
C235        C  0.53371378  0.52066326  0.41185970    -0.54600
C236        C  0.51770499  0.53466586  0.40752023     0.09400
C237        C  0.50131388  0.50711021  0.42834364    -0.54100
C238        C  0.48534714  0.52125361  0.42410387     0.10000
H239        H  0.47446684  0.44400802  0.41260943     0.14500
H240        H  0.46987566  0.53055538  0.40803241     0.00200
H241        H  0.55862254  0.52881633  0.41003684     0.14800
H242        H  0.50506521  0.50626473  0.43704339     0.14600
C243        C  0.51304539  0.00395969  0.41859067     0.86400
C244        C  0.53402724  0.99482479  0.41189322    -0.53900
C245        C  0.51826491  0.96420725  0.40777233     0.09300
C246        C  0.48228086  0.94554246  0.41082437     0.20200
C247        C  0.48503347  0.99721523  0.41090435    -0.54600
C248        C  0.46887947  0.96664062  0.40685334     0.09400
C249        C  0.49735047  0.97762005  0.42736909    -0.54100
C250        C  0.48115826  0.94702158  0.42332719     0.10000
H251        H  0.55916168  0.01186854  0.41037605     0.14500
H252        H  0.46893770  0.92051115  0.40780998     0.00200
H253        H  0.47777324  0.01437350  0.40889812     0.14800
H254        H  0.49826775  0.98288749  0.43601753     0.14600
O255        O  0.28508146  0.65469858  0.51647749    -0.85500
O256        O  0.34066016  0.71244927  0.51237639    -0.82500
C257        C  0.36221791  0.71453704  0.51876501     0.98000
O258        O  0.37299243  0.69576048  0.51769314    -0.82500
O259        O  0.37618198  0.64232218  0.51176482    -0.85200
C260        C  0.35651375  0.61986392  0.51791055     1.02500
O261        O  0.32677527  0.60839950  0.51665096    -0.78000
O262        O  0.27044475  0.60604430  0.51087125    -0.78100
C263        C  0.26690099  0.62462370  0.51722990     1.02500
O264        O  0.27278323  0.64479043  0.49342891    -0.85500
O265        O  0.33049902  0.69968996  0.48931194    -0.82500
C266        C  0.36048371  0.71798275  0.48872175     0.98000
O267        O  0.37857496  0.71462767  0.49534862    -0.82600
O268        O  0.37550011  0.65821865  0.48920659    -0.85200
C269        C  0.36348603  0.62845218  0.48761911     1.02500
O270        O  0.34165818  0.60835971  0.49386902    -0.78000
O271        O  0.28827857  0.61128136  0.48834049    -0.78100
C272        C  0.27104802  0.62365697  0.48690497     1.02500
Cr273      Cr  0.30894331  0.67611837  0.50292525     1.93700
Cr274      Cr  0.37232209  0.67595312  0.50347128     1.93200
Cr275      Cr  0.30850634  0.61201215  0.50249924     1.39100
O276        O  0.32984505  0.65467724  0.50298691    -1.23200
C277        C  0.34497992  0.15522598  0.23462896     0.86400
C278        C  0.33681199  0.17626304  0.24181472    -0.53900
C279        C  0.30603349  0.16096782  0.24572544     0.09300
C280        C  0.28613795  0.12570110  0.24189318     0.20200
C281        C  0.33636264  0.12566537  0.24183354    -0.54600
C282        C  0.30553754  0.11017311  0.24562071     0.09400
C283        C  0.31935251  0.14212713  0.22561659    -0.54100
C284        C  0.28861481  0.12699599  0.22936701     0.10000
H285        H  0.35415025  0.20126323  0.24352619     0.14500
H286        H  0.26116403  0.11265729  0.24492747     0.00200
H287        H  0.35245993  0.11706152  0.24379416     0.14800
H288        H  0.32514040  0.14544603  0.21697625     0.14600
C289        C  0.82733221  0.64257907  0.23632559     0.86400
C290        C  0.85736961  0.64929903  0.24288245    -0.53900
C291        C  0.87515611  0.68011021  0.24659440     0.09300
C292        C  0.86173315  0.70169787  0.24328133     0.20200
C293        C  0.80924131  0.65332184  0.24391957    -0.54600
C294        C  0.82702282  0.68440030  0.24757028     0.09400
C295        C  0.84065562  0.66799172  0.22717628    -0.54100
C296        C  0.85832895  0.69907817  0.23076577     0.10000
H297        H  0.86435163  0.63177372  0.24465774     0.14500
H298        H  0.87714211  0.72672908  0.24609516     0.00200
H299        H  0.78445272  0.63722646  0.24620824     0.14800
H300        H  0.83513226  0.66177150  0.21863024     0.14600
C301        C  0.83496466  0.17056129  0.23341865     0.86400
C302        C  0.81347082  0.14194844  0.24101499    -0.53900
C303        C  0.82801948  0.12589198  0.24479945     0.09300
C304        C  0.86264453  0.13991028  0.24077818     0.20200
C305        C  0.86534746  0.19151904  0.24015615    -0.54600
C306        C  0.87987817  0.17561657  0.24407658     0.09400
C307        C  0.84551289  0.15560587  0.22446227    -0.54100
C308        C  0.86012237  0.13964760  0.22826172     0.10000
H309        H  0.78883680  0.13399560  0.24307381     0.14500
H310        H  0.87430872  0.12683935  0.24393539     0.00200
H311        H  0.87402469  0.21666699  0.24190296     0.14800
H312        H  0.84192606  0.15781640  0.21583082     0.14600
O313        O  0.99949435  0.94793800  0.13423511    -0.85500
O314        O  0.05792771  0.00150202  0.13995976    -0.82500
C315        C  0.06181063  0.02575699  0.13466625     0.98000
O316        O  0.04316237  0.03641790  0.13621766    -0.82500
O317        O  0.98864685  0.03723934  0.14244190    -0.85200
C318        C  0.96557381  0.01826810  0.13631771     1.02500
O319        O  0.95398042  0.98830090  0.13699893    -0.78000
O320        O  0.95126533  0.93083522  0.14068817    -0.78100
C321        C  0.96956658  0.92901049  0.13371926     1.02500
O322        O  0.98826936  0.92814014  0.15665039    -0.85500
O323        O  0.04288010  0.98393762  0.16239250    -0.82500
C324        C  0.06136028  0.01347535  0.16420197     0.98000
O325        O  0.05898495  0.03433898  0.15866846    -0.82600
O326        O  0.00318928  0.03104560  0.16488628    -0.85200
C327        C  0.97364353  0.01957147  0.16639476     1.02500
O328        O  0.95353820  0.99847422  0.15996779    -0.78000
O329        O  0.95693729  0.94375146  0.16372897    -0.78100
C330        C  0.96794276  0.92501755  0.16377022     1.02500
Cr331      Cr  0.02049436  0.96717854  0.14836118     1.93700
Cr332      Cr  0.02162344  0.03125863  0.15046457     1.93200
Cr333      Cr  0.95739055  0.96710678  0.15030106     1.39100
O334        O  0.99988355  0.98861184  0.14964685    -1.23200
N335        N  0.18545625  0.34913591  0.34095891    -0.36700
N336        N  0.21724045  0.32474008  0.32722005    -0.57300
N337        N  0.15985368  0.29236136  0.31365346    -0.36700
N338        N  0.12961362  0.32008268  0.32662645    -0.57300
C339        C  0.21580096  0.36634108  0.34482393     0.26900
C340        C  0.16938503  0.36340731  0.34464169     0.26900
C341        C  0.18114951  0.28915671  0.30741471     0.26900
C342        C  0.13491696  0.28671998  0.30712579     0.26900
C343        C  0.23889189  0.33697101  0.33542534     0.35500
C344        C  0.22549839  0.30707352  0.32094813     0.35500
C345        C  0.11773736  0.32955211  0.33486188     0.35500
C346        C  0.10436746  0.30011315  0.32029152     0.35500
C347        C  0.21889664  0.39163004  0.35111866    -0.22000
C348        C  0.18970048  0.38987537  0.35095486    -0.22000
C349        C  0.16948819  0.28123345  0.29684431    -0.22000
C350        C  0.14040156  0.27971169  0.29666292    -0.22000
C351        C  0.26120899  0.32730919  0.33430751    -0.23100
C352        C  0.25261854  0.30820729  0.32517887    -0.23100
C353        C  0.08484185  0.31563317  0.33372939    -0.23100
C354        C  0.07637272  0.29698604  0.32449795    -0.23100
C355        C  0.24015414  0.35866127  0.34342200    -0.18400
C356        C  0.13642064  0.35217516  0.34298940    -0.18400
C357        C  0.10658769  0.28614298  0.31043810    -0.18400
C358        C  0.21022618  0.29184948  0.31105198    -0.18400
H359        H  0.23989501  0.40940854  0.35548304     0.14500
H360        H  0.18402705  0.40611506  0.35511749     0.14500
H361        H  0.18078928  0.27704005  0.28993702     0.14500
H362        H  0.12504566  0.27409067  0.28959826     0.14500
H363        H  0.28176908  0.33368074  0.33944481     0.12800
H364        H  0.26522002  0.29685225  0.32195656     0.12800
H365        H  0.06863716  0.31873497  0.33896698     0.12800
H366        H  0.05236116  0.28286191  0.32124269     0.12800
H367        H  0.17530761  0.32694208  0.33712464     0.26000
H368        H  0.16066096  0.29474991  0.32208619     0.26000
N369        N  0.66107213  0.82021049  0.34281324    -0.36700
N370        N  0.67916423  0.78956183  0.32626879    -0.57300
N371        N  0.70452531  0.84763790  0.31285703    -0.36700
N372        N  0.68319608  0.87675304  0.32883078    -0.57300
C373        C  0.64636764  0.78975540  0.34673842     0.26900
C374        C  0.64856573  0.83589067  0.34812694     0.26900
C375        C  0.70503075  0.82667206  0.30567198     0.26900
C376        C  0.70700012  0.87261169  0.30701419     0.26900
C377        C  0.67126819  0.76769550  0.33434569     0.35500
C378        C  0.69438527  0.78232440  0.31854618     0.35500
C379        C  0.67701641  0.88799995  0.33803914     0.35500
C380        C  0.69989745  0.90241725  0.32221071     0.35500
C381        C  0.62474127  0.78632170  0.35479523    -0.22000
C382        C  0.62599561  0.81530360  0.35562200    -0.22000
C383        C  0.70799935  0.83848003  0.29515428    -0.22000
C384        C  0.70913199  0.86741095  0.29599690    -0.22000
C385        C  0.68113720  0.74619351  0.33166635    -0.23100
C386        C  0.69597173  0.75558609  0.32168958    -0.23100
C387        C  0.68980663  0.92093521  0.33726228    -0.23100
C388        C  0.70440899  0.93009121  0.32724842    -0.23100
C389        C  0.65326756  0.76557742  0.34371779    -0.18400
C390        C  0.65800239  0.86868700  0.34680253    -0.18400
C391        C  0.70909657  0.90073656  0.31139823    -0.18400
C392        C  0.70488877  0.79814555  0.30838084    -0.18400
H393        H  0.60972813  0.76525380  0.35967717     0.14500
H394        H  0.61203688  0.82065070  0.36120745     0.14500
H395        H  0.70934464  0.82744460  0.28764479     0.14500
H396        H  0.71145615  0.88292867  0.28925301     0.14500
H397        H  0.67775604  0.72569313  0.33634432     0.12800
H398        H  0.70630042  0.74376019  0.31719765     0.12800
H399        H  0.68849584  0.93668590  0.34324940     0.12800
H400        H  0.71659509  0.95429187  0.32400771     0.12800
H401        H  0.68082664  0.83069371  0.33767492     0.26000
H402        H  0.70627697  0.84671403  0.32128320     0.26000
N403        N  0.18674061  0.79912204  0.34010225    -0.36700
N404        N  0.21677155  0.85601563  0.32632113    -0.57300
N405        N  0.15919747  0.82875341  0.31319806    -0.36700
N406        N  0.13040667  0.77041816  0.32622174    -0.57300
C407        C  0.21699536  0.81437969  0.34404736     0.26900
C408        C  0.17252153  0.76813798  0.34342044     0.26900
C409        C  0.18017862  0.85276560  0.30659639     0.26900
C410        C  0.13354163  0.80880494  0.30702849     0.26900
C411        C  0.23706415  0.86715354  0.33488766     0.35500
C412        C  0.22384491  0.88179042  0.32004937     0.35500
C413        C  0.11994944  0.74785204  0.33414209     0.35500
C414        C  0.10433993  0.76462786  0.32038536     0.35500
C415        C  0.22204294  0.79298348  0.35003184    -0.22000
C416        C  0.19397324  0.76382623  0.34965968    -0.22000
C417        C  0.16770845  0.84786682  0.29612222    -0.22000
C418        C  0.13817490  0.82025917  0.29641683    -0.22000
C419        C  0.25711425  0.90018524  0.33407027    -0.23100
C420        C  0.24880121  0.90945201  0.32462128    -0.23100
C421        C  0.08713284  0.72727989  0.33322739    -0.23100
C422        C  0.07718280  0.73812445  0.32457169    -0.23100
C423        C  0.23956439  0.84749141  0.34287526    -0.18400
C424        C  0.14000422  0.74441971  0.34171188    -0.18400
C425        C  0.10527973  0.78150278  0.31084438    -0.18400
C426        C  0.20911603  0.88019683  0.30995504    -0.18400
H427        H  0.24361477  0.79791173  0.35431748     0.14500
H428        H  0.18979707  0.74211302  0.35370059     0.14500
H429        H  0.17853983  0.86287440  0.28902220     0.14500
H430        H  0.12191348  0.80980550  0.28958870     0.14500
H431        H  0.27606822  0.91588397  0.33961066     0.12800
H432        H  0.25990483  0.93371254  0.32146450     0.12800
H433        H  0.07194949  0.70650273  0.33821231     0.12800
H434        H  0.05285254  0.72730822  0.32157765     0.12800
H435        H  0.17545381  0.81017864  0.33648461     0.26000
H436        H  0.16038083  0.82808143  0.32165441     0.26000
C437        C  0.65718356  0.83054709  0.75149334     0.86400
C438        C  0.66972738  0.86121998  0.74444720    -0.53900
C439        C  0.69991515  0.87253749  0.74037151     0.09300
C440        C  0.71476614  0.85223802  0.74368047     0.20200
C441        C  0.66026173  0.80675171  0.74394552    -0.54600
C442        C  0.69036103  0.81805001  0.73982219     0.09400
C443        C  0.68324990  0.83988994  0.76026072    -0.54100
C444        C  0.71327731  0.85108436  0.75617441     0.10000
H445        H  0.65657694  0.87328170  0.74271434     0.14500
H446        H  0.73922958  0.86160247  0.74038321     0.00200
H447        H  0.64022188  0.78302271  0.74205487     0.14800
H448        H  0.67834554  0.83790791  0.76896157     0.14600
C449        C  0.19050233  0.33839294  0.75191374     0.86400
C450        C  0.21025042  0.33102830  0.74384311    -0.53900
C451        C  0.19465105  0.30014016  0.73997276     0.09300
C452        C  0.16062032  0.27926762  0.74467324     0.20200
C453        C  0.15909141  0.32868439  0.74566241    -0.54600
C454        C  0.14359322  0.29785307  0.74182834     0.09400
C455        C  0.18046595  0.31271460  0.76088415    -0.54100
C456        C  0.16508319  0.28177764  0.75714815     0.10000
H457        H  0.23411308  0.34911970  0.74119547     0.14500
H458        H  0.14806143  0.25415763  0.74165264     0.00200
H459        H  0.14953024  0.34424239  0.74415060     0.14800
H460        H  0.18536783  0.31866076  0.76947913     0.14600
C461        C  0.18398315  0.82341243  0.75166234     0.86400
C462        C  0.15480500  0.80290917  0.74418528    -0.53900
C463        C  0.14036991  0.81912818  0.74031548     0.09300
C464        C  0.15623148  0.85412664  0.74437529     0.20200
C465        C  0.20593431  0.85323894  0.74475048    -0.54600
C466        C  0.19158306  0.86945382  0.74093893     0.09400
C467        C  0.17068711  0.83560496  0.76059991    -0.54100
C468        C  0.15640799  0.85198117  0.75692246     0.10000
H469        H  0.14666474  0.77838198  0.74178497     0.14500
H470        H  0.14448960  0.86712378  0.74125174     0.00200
H471        H  0.23090151  0.86103288  0.74318392     0.14800
H472        H  0.17238373  0.83119353  0.76919084     0.14600
O473        O  0.94519178  0.98187582  0.84320505    -0.85500
O474        O  0.00338044  0.03254364  0.84980598    -0.82500
C475        C  0.03323876  0.04946057  0.85129985     0.98000
O476        O  0.05232218  0.04647006  0.84501926    -0.82500
O477        O  0.04453513  0.98725623  0.84989042    -0.85200
C478        C  0.03090614  0.95709211  0.85070545     1.02500
O479        O  0.00858212  0.93909781  0.84420225    -0.78000
O480        O  0.95630154  0.94553465  0.84872848    -0.78100
C481        C  0.93988175  0.95900390  0.84952210     1.02500
O482        O  0.96488428  0.99669914  0.82095357    -0.85500
O483        O  0.02041335  0.05089152  0.82742891    -0.82500
C484        C  0.04122868  0.05179257  0.82098832     0.98000
O485        O  0.05090589  0.03215460  0.82211197    -0.82600
O486        O  0.04863385  0.97548054  0.82721692    -0.85200
C487        C  0.02905988  0.95493362  0.82052078     1.02500
O488        O  0.99948171  0.94487316  0.82131701    -0.78000
O489        O  0.94455346  0.94625249  0.82571597    -0.78100
C490        C  0.94496377  0.96727490  0.81941879     1.02500
Cr491      Cr  0.98496951  0.01360971  0.83537234     1.93700
Cr492      Cr  0.04568486  0.00883423  0.83601933     1.93200
Cr493      Cr  0.97917064  0.94732583  0.83504164     1.39100
O494        O  0.00327150  0.98985268  0.83548900    -1.23200
C495        C  0.50481520  0.97574519  0.56807261     0.86400
C496        C  0.53512727  0.98260515  0.57449120    -0.53900
C497        C  0.55121237  0.01236988  0.57925988     0.09300
C498        C  0.53571098  0.03285200  0.57694009     0.20200
C499        C  0.48501166  0.98216477  0.57641330    -0.54600
C500        C  0.50094794  0.01210168  0.58100718     0.09400
C501        C  0.51676748  0.00361888  0.55985946    -0.54100
C502        C  0.53299221  0.03353201  0.56443703     0.10000
H503        H  0.54332070  0.96571322  0.57539313     0.14500
H504        H  0.54844291  0.05702423  0.58071172     0.00200
H505        H  0.46018372  0.96469212  0.57827059     0.14800
H506        H  0.51278675  0.99988214  0.55112803     0.14600
C507        C  0.01012494  0.50903203  0.56811862     0.86400
C508        C  0.99868100  0.52736882  0.57536856    -0.53900
C509        C  0.96823914  0.50875874  0.57931068     0.09300
C510        C  0.95177651  0.47353527  0.57552325     0.20200
C511        C  0.00525965  0.48074854  0.57531524    -0.54600
C512        C  0.97470370  0.46204949  0.57914492     0.09400
C513        C  0.98439960  0.49358932  0.55918763    -0.54100
C514        C  0.95381510  0.47464400  0.56297849     0.10000
H515        H  0.01300130  0.55248454  0.57752535     0.14500
H516        H  0.92725397  0.45846417  0.57883619     0.00200
H517        H  0.02426889  0.47573326  0.57705890     0.14800
H518        H  0.99023820  0.49728216  0.55056168     0.14600
C519        C  0.49715875  0.50259392  0.56837822     0.86400
C520        C  0.47660914  0.47200718  0.57525046    -0.53900
C521        C  0.49347776  0.45881051  0.57938555     0.09300
C522        C  0.52918636  0.47710937  0.57647315     0.20200
C523        C  0.52461929  0.52500659  0.57607724    -0.54600
C524        C  0.54134769  0.51177327  0.58046123     0.09400
C525        C  0.51304065  0.49197774  0.55976188    -0.54100
C526        C  0.52986266  0.47867518  0.56393112     0.10000
H527        H  0.45112326  0.46088368  0.57668625     0.14500
H528        H  0.54193684  0.46553011  0.57997602     0.00200
H529        H  0.53001173  0.54923330  0.57790646     0.14800
H530        H  0.51108013  0.49487820  0.55106184     0.14600
O531        O  0.66460492  0.27852277  0.47049358    -0.85500
O532        O  0.72187810  0.33312250  0.47562060    -0.82500
C533        C  0.72553564  0.35533590  0.46922418     0.98000
O534        O  0.70795427  0.36753084  0.47013743    -0.82500
O535        O  0.65429566  0.37128207  0.47490762    -0.85200
C536        C  0.63218549  0.35226996  0.46856131     1.02500
O537        O  0.61993745  0.32224645  0.46959553    -0.78000
O538        O  0.61555491  0.26459948  0.47513849    -0.78100
C539        C  0.63473502  0.26098900  0.46915358     1.02500
O540        O  0.65095946  0.26434791  0.49334910    -0.85500
O541        O  0.70581686  0.32155416  0.49834902    -0.82500
C542        C  0.72384532  0.35150741  0.49949617     0.98000
O543        O  0.72204026  0.37080321  0.49298783    -0.82600
O544        O  0.66532255  0.36849169  0.49772874    -0.85200
C545        C  0.63545203  0.35685245  0.49861780     1.02500
O546        O  0.61639446  0.33492520  0.49220239    -0.78000
O547        O  0.61722029  0.28005782  0.49777145    -0.78100
C548        C  0.62853575  0.26190269  0.49934437     1.02500
Cr549      Cr  0.68407107  0.30123889  0.48441202     1.93700
Cr550      Cr  0.68555112  0.36586319  0.48393238     1.93200
Cr551      Cr  0.62091003  0.30219455  0.48369048     1.39100
O552        O  0.66351370  0.32306640  0.48400295    -1.23200
N553        N  0.81732501  0.62698437  0.65057656    -0.36700
N554        N  0.78792936  0.65394781  0.66415931    -0.57300
N555        N  0.84385174  0.68066455  0.67843112    -0.36700
N556        N  0.87490654  0.65724249  0.66415212    -0.57300
C557        C  0.79227691  0.62183922  0.64422740     0.26900
C558        C  0.83820735  0.62375315  0.64415271     0.26900
C559        C  0.82890133  0.69629836  0.68185456     0.26900
C560        C  0.87458818  0.69779873  0.68193070     0.26900
C561        C  0.76235410  0.63418026  0.65793806     0.35500
C562        C  0.77642411  0.66251494  0.67273874     0.35500
C563        C  0.88134499  0.63822232  0.65787752     0.35500
C564        C  0.89528972  0.66648627  0.67272818     0.35500
C565        C  0.79724021  0.61513399  0.63365218    -0.22000
C566        C  0.82624679  0.61642028  0.63359573    -0.22000
C567        C  0.85045247  0.72383527  0.68749059    -0.22000
C568        C  0.87928492  0.72476087  0.68754577    -0.22000
C569        C  0.73448684  0.63030028  0.66253590    -0.23100
C570        C  0.74338559  0.64813802  0.67196382    -0.23100
C571        C  0.90596499  0.63541489  0.66246575    -0.23100
C572        C  0.91469619  0.65320030  0.67191311    -0.23100
C573        C  0.76417412  0.62105903  0.64786805    -0.18400
C574        C  0.86666061  0.62507507  0.64772269    -0.18400
C575        C  0.89778623  0.68844979  0.68084302    -0.18400
C576        C  0.79576348  0.68500945  0.68077684    -0.18400
H577        H  0.78147119  0.60960797  0.62670812     0.14500
H578        H  0.83708382  0.61205083  0.62658867     0.14500
H579        H  0.84578638  0.74127512  0.69128466     0.14500
H580        H  0.90114904  0.74304883  0.69137480     0.14500
H581        H  0.71031093  0.61617215  0.65941259     0.12800
H582        H  0.72737443  0.65047645  0.67753599     0.12800
H583        H  0.91656770  0.62200191  0.65932126     0.12800
H584        H  0.93334343  0.65616587  0.67748236     0.12800
H585        H  0.81838496  0.62887333  0.65905613     0.26000
H586        H  0.83264398  0.65750887  0.67514012     0.26000
N587        N  0.38238677  0.17943982  0.64636884    -0.36700
N588        N  0.35091472  0.20513663  0.65978979    -0.57300
N589        N  0.32423576  0.14768688  0.67313766    -0.36700
N590        N  0.35247648  0.12026533  0.65900325    -0.57300
C591        C  0.38770971  0.20503951  0.64026178     0.26900
C592        C  0.38932182  0.16075730  0.64008015     0.26900
C593        C  0.30790111  0.16151605  0.67696210     0.26900
C594        C  0.30818873  0.11658831  0.67636775     0.26900
C595        C  0.37013412  0.23156395  0.65379537     0.35500
C596        C  0.34002086  0.21505465  0.66819988     0.35500
C597        C  0.37345074  0.11570029  0.65314130     0.35500
C598        C  0.34228488  0.09870768  0.66724742     0.35500
C599        C  0.39863920  0.20276858  0.63002028    -0.22000
C600        C  0.39945639  0.17477499  0.62988974    -0.22000
C601        C  0.28106073  0.13892273  0.68263106    -0.22000
C602        C  0.28116098  0.11052180  0.68221770    -0.22000
C603        C  0.37089367  0.25826735  0.65829593    -0.23100
C604        C  0.35219266  0.24789802  0.66749248    -0.23100
C605        C  0.37639685  0.09097946  0.65760662    -0.23100
C606        C  0.35675541  0.08029781  0.66658345    -0.23100
C607        C  0.38534586  0.23154359  0.64394937    -0.18400
C608        C  0.38879228  0.13252694  0.64351054    -0.18400
C609        C  0.31890516  0.09445475  0.67502520    -0.18400
C610        C  0.31790247  0.19452033  0.67615472    -0.18400
H611        H  0.40591069  0.21972716  0.62335090     0.14500
H612        H  0.40718161  0.16604947  0.62310091     0.14500
H613        H  0.26344891  0.14263055  0.68675406     0.14500
H614        H  0.26365460  0.08810832  0.68598898     0.14500
H615        H  0.38352508  0.28272105  0.65529692     0.12800
H616        H  0.34789524  0.26289777  0.67295001     0.12800
H617        H  0.39123761  0.08169852  0.65472074     0.12800
H618        H  0.35354972  0.06116523  0.67198849     0.12800
H619        H  0.37795821  0.17680902  0.65469273     0.26000
H620        H  0.34718621  0.15978218  0.66986130     0.26000
N621        N  0.84330619  0.17692190  0.64341726    -0.36700
N622        N  0.89879121  0.20596610  0.65788089    -0.57300
N623        N  0.86708371  0.14963258  0.67176210    -0.36700
N624        N  0.81325887  0.11884548  0.65653523    -0.57300
C625        C  0.86426995  0.20254991  0.63739621     0.26900
C626        C  0.81927298  0.15676428  0.63668791     0.26900
C627        C  0.89692544  0.16466154  0.67612529     0.26900
C628        C  0.85148533  0.11914037  0.67560780     0.26900
C629        C  0.90531695  0.23188550  0.65176500     0.35500
C630        C  0.91818998  0.21720158  0.66670216     0.35500
C631        C  0.78857199  0.11187414  0.64972479     0.35500
C632        C  0.80087453  0.09782155  0.66492113     0.35500
C633        C  0.85348483  0.19852641  0.62669985    -0.22000
C634        C  0.82503056  0.16969778  0.62626657    -0.22000
C635        C  0.90034344  0.14334941  0.68276993    -0.22000
C636        C  0.87159243  0.11480004  0.68255490    -0.22000
C637        C  0.92899281  0.25969861  0.65670947    -0.23100
C638        C  0.93715052  0.25039315  0.66617407    -0.23100
C639        C  0.76058397  0.08582494  0.65365593    -0.23100
C640        C  0.76838993  0.07683956  0.66325763    -0.23100
C641        C  0.89145922  0.23057114  0.64148551    -0.18400
C642        C  0.79109962  0.12826488  0.63988005    -0.18400
C643        C  0.81877972  0.09620297  0.67376479    -0.18400
C644        C  0.92025999  0.19767297  0.67488515    -0.18400
H645        H  0.86464962  0.21492861  0.61993710     0.14500
H646        H  0.81005471  0.15959581  0.61912029     0.14500
H647        H  0.92116951  0.14799137  0.68747716     0.14500
H648        H  0.86617168  0.09346108  0.68712141     0.14500
H649        H  0.93938105  0.28415216  0.65380046     0.12800
H650        H  0.95501428  0.26627714  0.67199099     0.12800
H651        H  0.73696300  0.07449330  0.65001833     0.12800
H652        H  0.75196972  0.05701740  0.66838949     0.12800
H653        H  0.84324608  0.17535286  0.65186551     0.26000
H654        H  0.85655202  0.16059648  0.66757731     0.26000
C655        C  0.54570352  0.46554819  0.55693146    -0.03300
C656        C  0.57483255  0.46819131  0.56007088    -0.05900
C657        C  0.58997957  0.45649153  0.55333045    -0.21000
C658        C  0.57614083  0.44140497  0.54337363     0.24700
C659        C  0.54684531  0.43864263  0.54025708    -0.18600
C660        C  0.53181835  0.45044812  0.54697533    -0.08500
C661        C  0.59337950  0.42980014  0.53634665    -0.18800
C662        C  0.57861285  0.40679047  0.52868792    -0.23600
C663        C  0.59475707  0.39429304  0.52152016     0.26800
C664        C  0.57525951  0.36644979  0.51542336    -0.20400
C665        C  0.58862256  0.35412177  0.50822119    -0.10000
C666        C  0.62201301  0.36934958  0.50685183    -0.10600
C667        C  0.64176010  0.39699356  0.51304810    -0.03500
C668        C  0.62831045  0.40946504  0.52027863    -0.18600
H669        H  0.58634610  0.47993278  0.56761079     0.10500
H670        H  0.61262144  0.45922521  0.55591386     0.10500
H671        H  0.53564265  0.42803460  0.53254471     0.10200
H672        H  0.50917795  0.44763078  0.54436656     0.11300
H673        H  0.61870450  0.43971680  0.53792280     0.11400
H674        H  0.55283069  0.39539264  0.52779476     0.13300
H675        H  0.54940430  0.35421330  0.51616152     0.09800
H676        H  0.57262116  0.33273020  0.50361853     0.11900
H677        H  0.66756040  0.40938286  0.51213553     0.08500
H678        H  0.64432596  0.43127477  0.52463935     0.11300
C679        C  0.56720880  0.52837083  0.58880480    -0.03300
C680        C  0.56749638  0.55135932  0.59594708    -0.05900
C681        C  0.59134703  0.56616376  0.60392499    -0.21000
C682        C  0.61524792  0.55811507  0.60507044     0.24700
C683        C  0.61525071  0.53549869  0.59784471    -0.18600
C684        C  0.59148253  0.52077149  0.58987241    -0.08500
C685        C  0.64040460  0.57450396  0.61358894    -0.18800
C686        C  0.65693055  0.56150590  0.61786424    -0.23600
C687        C  0.68317329  0.57754320  0.62604956     0.26800
C688        C  0.69371283  0.55883781  0.63140172    -0.20400
C689        C  0.71957501  0.57289563  0.63863526    -0.10000
C690        C  0.73548928  0.60601155  0.64067396    -0.10600
C691        C  0.72489539  0.62484927  0.63549644    -0.03500
C692        C  0.69904745  0.61082179  0.62820711    -0.18600
H693        H  0.54897865  0.55755875  0.59554839     0.10500
H694        H  0.59087380  0.58367333  0.60931926     0.10500
H695        H  0.63391582  0.52950280  0.59813992     0.10200
H696        H  0.59261289  0.50379452  0.58445319     0.11300
H697        H  0.64442932  0.59734120  0.61662412     0.11400
H698        H  0.65058653  0.53738455  0.61543037     0.13300
H699        H  0.68212893  0.53324201  0.62987477     0.09800
H700        H  0.72750163  0.55802610  0.64254801     0.11900
H701        H  0.73715633  0.65053285  0.63691254     0.08500
H702        H  0.69235634  0.62634143  0.62409857     0.11300
C703        C  0.39913346  0.26067975  0.63697847    -0.03300
C704        C  0.42788916  0.28836048  0.63993627    -0.05900
C705        C  0.44084466  0.31573435  0.63333108    -0.21000
C706        C  0.42574777  0.31549499  0.62352856     0.24700
C707        C  0.39695549  0.28767947  0.62056791    -0.18600
C708        C  0.38362793  0.26058635  0.62730129    -0.08500
C709        C  0.43974981  0.34497700  0.61677756    -0.18800
C710        C  0.43820013  0.34417980  0.60581599    -0.23600
C711        C  0.45215352  0.37378702  0.59911419     0.26800
C712        C  0.46520463  0.37416223  0.58885624    -0.20400
C713        C  0.47887367  0.40197906  0.58244688    -0.10000
C714        C  0.47868308  0.42938998  0.58606574    -0.10600
C715        C  0.46487138  0.42884887  0.59615720    -0.03500
C716        C  0.45188981  0.40132908  0.60268345    -0.18600
H717        H  0.44011175  0.28876912  0.64738984     0.10500
H718        H  0.46289619  0.33701548  0.63580263     0.10500
H719        H  0.38438673  0.28707980  0.61318638     0.10200
H720        H  0.36132363  0.23941444  0.62494804     0.11300
H721        H  0.45307739  0.36795016  0.62093711     0.11400
H722        H  0.42791048  0.32125438  0.60160535     0.13300
H723        H  0.46532614  0.35309852  0.58589842     0.09800
H724        H  0.48935254  0.40207388  0.57462994     0.11900
H725        H  0.46457048  0.44988865  0.59903717     0.08500
H726        H  0.44125227  0.40147486  0.61043092     0.11300
C727        C  0.74799019  0.36465525  0.50830851    -0.03300
C728        C  0.75728535  0.39491848  0.51278956    -0.05900
C729        C  0.78084236  0.40812120  0.52087753    -0.21000
C730        C  0.79620346  0.39177257  0.52446574     0.24700
C731        C  0.78672324  0.36130689  0.52004468    -0.18600
C732        C  0.76266783  0.34780431  0.51208296    -0.08500
C733        C  0.82161585  0.40712616  0.53290944    -0.18800
C734        C  0.84621161  0.40176188  0.53378514    -0.23600
C735        C  0.87306849  0.41965059  0.54156429     0.26800
C736        C  0.90378553  0.42622106  0.53865035    -0.20400
C737        C  0.92988982  0.44403893  0.54556988    -0.10000
C738        C  0.92582901  0.45545397  0.55565338    -0.10600
C739        C  0.89480283  0.44787176  0.55872802    -0.03500
C740        C  0.86869453  0.43020439  0.55176200    -0.18600
H741        H  0.74617463  0.40831732  0.51007007     0.10500
H742        H  0.78748997  0.43146720  0.52421197     0.10500
H743        H  0.79751059  0.34767857  0.52280240     0.10200
H744        H  0.75595938  0.32447455  0.50872817     0.11300
H745        H  0.82141233  0.42542678  0.53799508     0.11400
H746        H  0.84833072  0.38596226  0.52798653     0.13300
H747        H  0.90770091  0.41797772  0.53090323     0.09800
H748        H  0.95319604  0.44849709  0.54303971     0.11900
H749        H  0.89061432  0.45599712  0.56641961     0.08500
H750        H  0.84512292  0.42470766  0.55440083     0.11300
C751        C  0.88220809  0.61276239  0.64028268    -0.03300
C752        C  0.91254389  0.63379947  0.63587950    -0.05900
C753        C  0.92659869  0.62250678  0.62852174    -0.21000
C754        C  0.91050803  0.59005842  0.62534956     0.24700
C755        C  0.88033964  0.56885129  0.62997893    -0.18600
C756        C  0.86631793  0.58018146  0.63734722    -0.08500
C757        C  0.92633880  0.57931054  0.61739842    -0.18800
C758        C  0.91035921  0.55271945  0.61118169    -0.23600
C759        C  0.92608473  0.54235220  0.60303025     0.26800
C760        C  0.90714579  0.52040606  0.59488758    -0.20400
C761        C  0.92080945  0.50972300  0.58713073    -0.10000
C762        C  0.95375965  0.52075207  0.58734110    -0.10600
C763        C  0.97270613  0.54244413  0.59554973    -0.03500
C764        C  0.95905956  0.55300741  0.60333864    -0.18600
H765        H  0.92513645  0.65903550  0.63805042     0.10500
H766        H  0.94995486  0.63928977  0.62517364     0.10500
H767        H  0.86760575  0.54348921  0.62806243     0.10200
H768        H  0.84298922  0.56357561  0.64075140     0.11300
H769        H  0.95191536  0.59505159  0.61625583     0.11400
H770        H  0.88441717  0.53859685  0.61165090     0.13300
H771        H  0.88165974  0.51158106  0.59449160     0.09800
H772        H  0.90560081  0.49311254  0.58090852     0.11900
H773        H  0.99801992  0.55065001  0.59613864     0.08500
H774        H  0.97440974  0.56889913  0.60968753     0.11300
C775        C  0.96433969  0.43337236  0.58615099    -0.03300
C776        C  0.93351259  0.40650292  0.58492146    -0.05900
C777        C  0.92285789  0.37996478  0.59179582    -0.21000
C778        C  0.94275796  0.37952905  0.60003449     0.24700
C779        C  0.97381946  0.40640301  0.60123571    -0.18600
C780        C  0.98452235  0.43299170  0.59431111    -0.08500
C781        C  0.92940873  0.35114781  0.60740035    -0.18800
C782        C  0.94709668  0.34382638  0.61397133    -0.23600
C783        C  0.93252693  0.31506374  0.62117527     0.26800
C784        C  0.95077533  0.30116979  0.62420030    -0.20400
C785        C  0.93754084  0.27374814  0.63080720    -0.10000
C786        C  0.90594766  0.26003558  0.63462135    -0.10600
C787        C  0.88793217  0.27431596  0.63184773    -0.03500
C788        C  0.90106883  0.30160472  0.62522041    -0.18600
H789        H  0.91759432  0.40587214  0.57859591     0.10500
H790        H  0.89884211  0.35966901  0.59068383     0.10500
H791        H  0.98966494  0.40750125  0.60764798     0.10200
H792        H  0.00823355  0.45363236  0.59555107     0.11300
H793        H  0.90367875  0.33484996  0.60704050     0.11400
H794        H  0.97304262  0.35816924  0.61370969     0.13300
H795        H  0.97515284  0.31127050  0.62130425     0.09800
H796        H  0.95182816  0.26307928  0.63290190     0.11900
H797        H  0.86365510  0.26428076  0.63484027     0.08500
H798        H  0.88663310  0.31227957  0.62343458     0.11300
C799        C  0.54633961  0.06366477  0.55791076    -0.03300
C800        C  0.57713887  0.08963841  0.56008665    -0.05900
C801        C  0.59028020  0.11752521  0.55368686    -0.21000
C802        C  0.57272117  0.12036966  0.54507519     0.24700
C803        C  0.54162881  0.09446274  0.54298503    -0.18600
C804        C  0.52867716  0.06640602  0.54930916    -0.08500
C805        C  0.58848739  0.14945176  0.53793780    -0.18800
C806        C  0.57233752  0.15987098  0.53183744    -0.23600
C807        C  0.58821039  0.18726378  0.52399762     0.26800
C808        C  0.57314500  0.20468915  0.52129798    -0.20400
C809        C  0.58649081  0.22934501  0.51348770    -0.10000
C810        C  0.61498584  0.23678562  0.50802595    -0.10600
C811        C  0.63000142  0.21924062  0.51071385    -0.03500
C812        C  0.61686275  0.19487178  0.51860818    -0.18600
H813        H  0.59153178  0.08803162  0.56650045     0.10500
H814        H  0.61441796  0.13685237  0.55540404     0.10500
H815        H  0.52760305  0.09529002  0.53626092     0.10200
H816        H  0.50481670  0.04677027  0.54745818     0.11300
H817        H  0.61450991  0.16299456  0.53783759     0.11400
H818        H  0.54651903  0.14835135  0.53270925     0.13300
H819        H  0.55087471  0.19911854  0.52522410     0.09800
H820        H  0.57415630  0.24218002  0.51158309     0.11900
H821        H  0.65184823  0.22413459  0.50663192     0.08500
H822        H  0.62869954  0.18139581  0.52021111     0.11300
C823        C  0.76242717  0.11593632  0.63272003    -0.03300
C824        C  0.74710751  0.13376486  0.63153150    -0.05900
C825        C  0.72006257  0.12253357  0.62489061    -0.21000
C826        C  0.70766768  0.09320744  0.61929393     0.24700
C827        C  0.72333954  0.07546748  0.62041649    -0.18600
C828        C  0.75041265  0.08672964  0.62711221    -0.08500
C829        C  0.67925046  0.08297456  0.61210775    -0.18800
C830        C  0.66092836  0.05304272  0.60805932    -0.23600
C831        C  0.63294751  0.04346464  0.60071050     0.26800
C832        C  0.61026987  0.01068121  0.59946818    -0.20400
C833        C  0.58390348  0.00056046  0.59253170    -0.10000
C834        C  0.57965526  0.02301689  0.58654194    -0.10600
C835        C  0.60249538  0.05581992  0.58776143    -0.03500
C836        C  0.62886489  0.06594040  0.59467996    -0.18600
H837        H  0.75610834  0.15639749  0.63578793     0.10500
H838        H  0.70874490  0.13685509  0.62413202     0.10500
H839        H  0.71530887  0.05325615  0.61603614     0.10200
H840        H  0.76216469  0.07282206  0.62786741     0.11300
H841        H  0.67272422  0.10094119  0.61041053     0.11400
H842        H  0.66571103  0.03427882  0.61045685     0.13300
H843        H  0.61279194  0.99277789  0.60396623     0.09800
H844        H  0.56659456  0.97511170  0.59206444     0.11900
H845        H  0.60051002  0.07392183  0.58326981     0.08500
H846        H  0.64619851  0.09136925  0.59505441     0.11300
C847        C  0.40469402  0.11971816  0.63648153    -0.03300
C848        C  0.43804851  0.13714486  0.63512452    -0.05900
C849        C  0.45289021  0.12603587  0.62804323    -0.21000
C850        C  0.43472301  0.09718775  0.62226261     0.24700
C851        C  0.40119538  0.07974059  0.62364771    -0.18600
C852        C  0.38636928  0.09090394  0.63073493    -0.08500
C853        C  0.45149475  0.08689271  0.61456514    -0.18800
C854        C  0.43968089  0.05616830  0.61142136    -0.23600
C855        C  0.45650629  0.04582653  0.60374703     0.26800
C856        C  0.44821832  0.01343934  0.60371351    -0.20400
C857        C  0.46279328  0.00248266  0.59643645    -0.10000
C858        C  0.48587618  0.02368919  0.58895499    -0.10600
C859        C  0.49411305  0.05607434  0.58895335    -0.03500
C860        C  0.47955391  0.06704129  0.59622919    -0.18600
H861        H  0.45249603  0.15954045  0.63946029     0.10500
H862        H  0.47867346  0.14005308  0.62706329     0.10500
H863        H  0.38623043  0.05797426  0.61908531     0.10200
H864        H  0.36052953  0.07743813  0.63158275     0.11300
H865        H  0.47514159  0.10523158  0.61184380     0.11400
H866        H  0.41741397  0.03743916  0.61495466     0.13300
H867        H  0.43044327  0.99654041  0.60936909     0.09800
H868        H  0.45612902  0.97744137  0.59672990     0.11900
H869        H  0.51114858  0.07285092  0.58310605     0.08500
H870        H  0.48585126  0.09191716  0.59569619     0.11300
C871        C  0.14322520  0.86660529  0.76449340    -0.03300
C872        C  0.15651297  0.87674011  0.77496044    -0.05900
C873        C  0.14383219  0.88948737  0.78226397    -0.21000
C874        C  0.11760533  0.89268015  0.77935111     0.24700
C875        C  0.10465867  0.88333905  0.76878372    -0.18600
C876        C  0.11731972  0.87035538  0.76144930    -0.08500
C877        C  0.10550859  0.90674527  0.78753925    -0.18800
C878        C  0.07640034  0.90400844  0.78720123    -0.23600
C879        C  0.06485248  0.91765355  0.79576230     0.26800
C880        C  0.03173099  0.90470661  0.79711981    -0.20400
C881        C  0.01998159  0.91677926  0.80511294    -0.10000
C882        C  0.04116978  0.94222263  0.81190959    -0.10600
C883        C  0.07432259  0.95550880  0.81044095    -0.03500
C884        C  0.08604443  0.94356191  0.80243549    -0.18600
H885        H  0.17706205  0.87521939  0.77753634     0.10500
H886        H  0.15461537  0.89686034  0.79027262     0.10500
H887        H  0.08501005  0.88620704  0.76608737     0.10200
H888        H  0.10640008  0.86277558  0.75348256     0.11300
H889        H  0.12093597  0.91847033  0.79449788     0.11400
H890        H  0.05967832  0.88991249  0.78079226     0.13300
H891        H  0.01485498  0.88495332  0.79204234     0.09800
H892        H  0.99430775  0.90604873  0.80601073     0.11900
H893        H  0.09133795  0.97538820  0.81544234     0.08500
H894        H  0.11172285  0.95513345  0.80142862     0.11300
C895        C  0.11310361  0.80510253  0.73245921    -0.03300
C896        C  0.11205602  0.82401241  0.72393702    -0.05900
C897        C  0.08663087  0.81114446  0.71648517    -0.21000
C898        C  0.06132442  0.77924747  0.71746708     0.24700
C899        C  0.06241820  0.76019595  0.72597797    -0.18600
C900        C  0.08810458  0.77299033  0.73336560    -0.08500
C901        C  0.03495301  0.76647292  0.70924112    -0.18800
C902        C  0.00490927  0.74223074  0.71130083    -0.23600
C903        C  0.97815453  0.72951543  0.70321018     0.26800
C904        C  0.94647104  0.71232114  0.70706765    -0.20400
C905        C  0.92057243  0.69906945  0.69981368    -0.10000
C906        C  0.92570689  0.70254414  0.68849574    -0.10600
C907        C  0.95733571  0.71972578  0.68458177    -0.03500
C908        C  0.98331954  0.73295657  0.69184517    -0.18600
H909        H  0.13123791  0.84865903  0.72289443     0.10500
H910        H  0.08664935  0.82625771  0.70994811     0.10500
H911        H  0.04384261  0.73526002  0.72684421     0.10200
H912        H  0.08825795  0.75785449  0.73985652     0.11300
H913        H  0.04023355  0.77874649  0.70143763     0.11400
H914        H  0.99907999  0.73206813  0.71945525     0.13300
H915        H  0.94171312  0.70913235  0.71575073     0.09800
H916        H  0.89641345  0.68593085  0.70303233     0.11900
H917        H  0.96188997  0.72279704  0.67588774     0.08500
H918        H  0.00729187  0.74527605  0.68849915     0.11300
C919        C  0.20837398  0.89872344  0.73400942    -0.03300
C920        C  0.20089232  0.92317041  0.73486382    -0.05900
C921        C  0.21624222  0.95045848  0.72822611    -0.21000
C922        C  0.23905788  0.95371011  0.72049663     0.24700
C923        C  0.24699473  0.92952779  0.71975719    -0.18600
C924        C  0.23177120  0.90231975  0.72643521    -0.08500
C925        C  0.25451146  0.98287020  0.71351535    -0.18800
C926        C  0.26573319  0.98323225  0.70343152    -0.23600
C927        C  0.27968650  0.01205611  0.69629937     0.26800
C928        C  0.27693624  0.00796236  0.68493161    -0.20400
C929        C  0.28935916  0.03462481  0.67799152    -0.10000
C930        C  0.30537971  0.06586909  0.68231310    -0.10600
C931        C  0.30878392  0.07001338  0.69366302    -0.03500
C932        C  0.29603949  0.04339607  0.70060325    -0.18600
H933        H  0.18348385  0.92147177  0.74076526     0.10500
H934        H  0.21001539  0.96895292  0.72904985     0.10500
H935        H  0.26515224  0.93166023  0.71411890     0.10200
H936        H  0.23799957  0.88386681  0.72553615     0.11300
H937        H  0.25463276  0.00407975  0.71651329     0.11400
H938        H  0.26264418  0.96115435  0.69996519     0.13300
H939        H  0.26469628  0.98406378  0.68142601     0.09800
H940        H  0.28651846  0.03093867  0.66925229     0.11900
H941        H  0.32143110  0.09394534  0.69713724     0.08500
H942        H  0.29948389  0.04744980  0.70930508     0.11300
C943        C  0.15468814  0.25342491  0.76441491    -0.03300
C944        C  0.17352817  0.25477113  0.77336733    -0.05900
C945        C  0.16351282  0.22800084  0.78017348    -0.21000
C946        C  0.13417483  0.19962534  0.77831544     0.24700
C947        C  0.11572776  0.19806399  0.76922581    -0.18600
C948        C  0.12597238  0.22460291  0.76235256    -0.08500
C949        C  0.12318385  0.17209150  0.78597502    -0.18800
C950        C  0.09192841  0.15243492  0.78830715    -0.23600
C951        C  0.07981298  0.12623323  0.79653144     0.26800
C952        C  0.05074958  0.11734491  0.80176259    -0.20400
C953        C  0.03835132  0.09311715  0.80963033    -0.10000
C954        C  0.05444633  0.07670966  0.81234613    -0.10600
C955        C  0.08310103  0.08482847  0.80687551    -0.03500
C956        C  0.09580682  0.10953012  0.79906925    -0.18600
H957        H  0.19616810  0.27640795  0.77504377     0.10500
H958        H  0.17837944  0.22967496  0.78703734     0.10500
H959        H  0.09344712  0.17626178  0.76735119     0.10200
H960        H  0.11104465  0.22257155  0.75552689     0.11300
H961        H  0.14122583  0.16961410  0.79040413     0.11400
H962        H  0.07439525  0.15729712  0.78464951     0.13300
H963        H  0.03777401  0.12955922  0.79987100     0.09800
H964        H  0.01602921  0.08720445  0.81359057     0.11900
H965        H  0.09589003  0.07242020  0.80873713     0.08500
H966        H  0.11783865  0.11521366  0.79496102     0.11300
C967        C  0.94853192  0.21228863  0.68236152    -0.03300
C968        C  0.97975370  0.22664301  0.67812984    -0.05900
C969        C  0.00628535  0.24036266  0.68510561    -0.21000
C970        C  0.00220488  0.23946035  0.69646693     0.24700
C971        C  0.97090372  0.22526266  0.70071096    -0.18600
C972        C  0.94436847  0.21191720  0.69371374    -0.08500
C973        C  0.03113609  0.25437466  0.70357647    -0.18800
C974        C  0.03116769  0.24503573  0.71394124    -0.23600
C975        C  0.06036975  0.25924060  0.72091916     0.26800
C976        C  0.06221898  0.24062963  0.72936960    -0.20400
C977        C  0.08922543  0.25308722  0.73611659    -0.10000
C978        C  0.11469687  0.28469176  0.73473663    -0.10600
C979        C  0.11269682  0.30356823  0.72638962    -0.03500
C980        C  0.08587116  0.29100261  0.71953653    -0.18600
H981        H  0.98355162  0.22720848  0.66940520     0.10500
H982        H  0.03010369  0.25138651  0.68161782     0.10500
H983        H  0.96681342  0.22495613  0.70939665     0.10200
H984        H  0.92051788  0.20131418  0.69714650     0.11300
H985        H  0.05355306  0.27232604  0.69988809     0.11400
H986        H  0.00946703  0.22490692  0.71727617     0.13300
H987        H  0.04280270  0.21622274  0.73069359     0.09800
H988        H  0.08986021  0.23810246  0.74251011     0.11900
H989        H  0.13210247  0.32796746  0.72506858     0.08500
H990        H  0.08501291  0.30640003  0.71329982     0.11300
C991        C  0.20832554  0.28834891  0.73154439    -0.03300
C992        C  0.18806661  0.26526318  0.72389076    -0.05900
C993        C  0.20055616  0.25409677  0.71590105    -0.21000
C994        C  0.23352840  0.26551451  0.71539781     0.24700
C995        C  0.25400231  0.28899628  0.72293871    -0.18600
C996        C  0.24149276  0.30025827  0.73093821    -0.08500
C997        C  0.24559078  0.25280985  0.70675787    -0.18800
C998        C  0.27216893  0.25084040  0.70789330    -0.23600
C999        C  0.28279640  0.23593608  0.69955266     0.26800
C1000       C  0.30030248  0.22159701  0.70294318    -0.20400
C1001       C  0.31112104  0.20769253  0.69534650    -0.10000
C1002       C  0.30493660  0.20815616  0.68418128    -0.10600
C1003       C  0.28727710  0.22231566  0.68074825    -0.03500
C1004       C  0.27645662  0.23627648  0.68835116    -0.18600
H1005       H  0.16254267  0.25620734  0.72389137     0.10500
H1006       H  0.18432922  0.23629730  0.71011210     0.10500
H1007       H  0.27967004  0.29901216  0.72260171     0.10200
H1008       H  0.25777992  0.31805557  0.73670323     0.11300
H1009       H  0.23065794  0.24248266  0.69958135     0.11400
H1010       H  0.28537471  0.25821428  0.71552363     0.13300
H1011       H  0.30553907  0.22106908  0.71150909     0.09800
H1012       H  0.32471904  0.19689805  0.69815571     0.11900
H1013       H  0.28231252  0.22295566  0.67216404     0.08500
H1014       H  0.26374307  0.24783550  0.68541026     0.11300
C1015       C  0.74209928  0.86271343  0.76310799    -0.03300
C1016       C  0.76284358  0.85078935  0.76163341    -0.05900
C1017       C  0.79065151  0.86249272  0.76792904    -0.21000
C1018       C  0.79855556  0.88675633  0.77569547     0.24700
C1019       C  0.77748484  0.89845544  0.77724811    -0.18600
C1020       C  0.74946321  0.88642845  0.77102448    -0.08500
C1021       C  0.82781008  0.89777306  0.78246632    -0.18800
C1022       C  0.84359207  0.92678473  0.78735467    -0.23600
C1023       C  0.87123367  0.93671513  0.79487569     0.26800
C1024       C  0.89213920  0.96957938  0.79691991    -0.20400
C1025       C  0.91678273  0.97969070  0.80462926    -0.10000
C1026       C  0.92078211  0.95706183  0.81057006    -0.10600
C1027       C  0.90023378  0.92420715  0.80837258    -0.03500
C1028       C  0.87574670  0.91412787  0.80064869    -0.18600
H1029       H  0.75724996  0.83198565  0.75576749     0.10500
H1030       H  0.80610402  0.85262053  0.76670765     0.10500
H1031       H  0.78216766  0.91637814  0.78339500     0.10200
H1032       H  0.73369595  0.89590457  0.77229468     0.11300
H1033       H  0.83697852  0.88150949  0.78319477     0.11400
H1034       H  0.83626481  0.94422094  0.78574164     0.13300
H1035       H  0.88909430  0.98749137  0.79264999     0.09800
H1036       H  0.93214207  0.00518020  0.80613917     0.11900
H1037       H  0.90258664  0.90612566  0.81281329     0.08500
H1038       H  0.85972062  0.88858491  0.79957360     0.11300
C1039       C  0.71638842  0.90082725  0.73301772    -0.03300
C1040       C  0.74988076  0.92085162  0.73338584    -0.05900
C1041       C  0.76566589  0.94614199  0.72596188    -0.21000
C1042       C  0.74828314  0.95222643  0.71813366     0.24700
C1043       C  0.71472764  0.93243985  0.71783830    -0.18600
C1044       C  0.69896836  0.90702926  0.72521016    -0.08500
C1045       C  0.76583386  0.97825082  0.71003910    -0.18800
C1046       C  0.75319746  0.99467193  0.70547943    -0.23600
C1047       C  0.77058200  0.02044538  0.69731293     0.26800
C1048       C  0.76520398  0.04634813  0.69699881    -0.20400
C1049       C  0.78111106  0.07100048  0.68938220    -0.10000
C1050       C  0.80207654  0.06975373  0.68178250    -0.10600
C1051       C  0.80684678  0.04345178  0.68185068    -0.03500
C1052       C  0.79140287  0.01905570  0.68961626    -0.18600
H1053       H  0.76394797  0.91702260  0.73941226     0.10500
H1054       H  0.79153438  0.96102702  0.72633592     0.10500
H1055       H  0.70066965  0.93584014  0.71169494     0.10200
H1056       H  0.67323415  0.89159717  0.72454906     0.11300
H1057       H  0.79035012  0.98493863  0.70812445     0.11400
H1058       H  0.73002945  0.99035314  0.70823195     0.13300
H1059       H  0.74898625  0.04770832  0.70276007     0.09800
H1060       H  0.77701295  0.09105346  0.68936784     0.11900
H1061       H  0.82264714  0.04197235  0.67593588     0.08500
H1062       H  0.79529046  0.99888997  0.68945912     0.11300
C1063       C  0.78110924  0.69798274  0.68833919    -0.03300
C1064       C  0.78309897  0.69488640  0.69964971    -0.05900
C1065       C  0.77109183  0.70860409  0.70683517    -0.21000
C1066       C  0.75642830  0.72526776  0.70287097     0.24700
C1067       C  0.75411560  0.72807766  0.69151682    -0.18600
C1068       C  0.76643782  0.71458768  0.68432324    -0.08500
C1069       C  0.74593860  0.74114100  0.71084344    -0.18800
C1070       C  0.72407609  0.74976488  0.70868774    -0.23600
C1071       C  0.71550849  0.76700649  0.71677836     0.26800
C1072       C  0.68488304  0.76338437  0.71653555    -0.20400
C1073       C  0.67639187  0.77947606  0.72410945    -0.10000
C1074       C  0.69861442  0.79991586  0.73196170    -0.10600
C1075       C  0.72945458  0.80403687  0.73198838    -0.03500
C1076       C  0.73783743  0.78784702  0.72450810    -0.18600
H1077       H  0.79444104  0.68225698  0.70290309     0.10500
H1078       H  0.77346179  0.70637713  0.71553388     0.10500
H1079       H  0.74384913  0.74153896  0.68814740     0.10200
H1080       H  0.76511248  0.71762337  0.67561886     0.11300
H1081       H  0.75620115  0.74509995  0.71897124     0.11400
H1082       H  0.71122495  0.74308442  0.70098976     0.13300
H1083       H  0.66744784  0.74791868  0.71052199     0.09800
H1084       H  0.65268261  0.77641489  0.72366723     0.11900
H1085       H  0.74732026  0.81973873  0.73778951     0.08500
H1086       H  0.76207436  0.79225159  0.72468605     0.11300
C1087       C  0.96235861  0.03181063  0.17541214    -0.03300
C1088       C  0.98426539  0.05604883  0.18243820    -0.05900
C1089       C  0.97353361  0.06898180  0.19045778    -0.21000
C1090       C  0.94073545  0.05815051  0.19162071     0.24700
C1091       C  0.91872540  0.03289051  0.18488375    -0.18600
C1092       C  0.92945994  0.02006847  0.17684674    -0.08500
C1093       C  0.93070799  0.07407804  0.19984266    -0.18800
C1094       C  0.90196402  0.07223846  0.19969118    -0.23600
C1095       C  0.89223092  0.08984379  0.20728901     0.26800
C1096       C  0.86461810  0.09108941  0.20473926    -0.20400
C1097       C  0.85435122  0.10739351  0.21147742    -0.10000
C1098       C  0.87137887  0.12276638  0.22100154    -0.10600
C1099       C  0.89885011  0.12138273  0.22364742    -0.03500
C1100       C  0.90917658  0.10505018  0.21689610    -0.18600
H1101       H  0.00977038  0.06545135  0.18162109     0.10500
H1102       H  0.99102961  0.08805669  0.19561762     0.10500
H1103       H  0.89317579  0.02275156  0.18573098     0.10200
H1104       H  0.91190779  0.00112276  0.17166659     0.11300
H1105       H  0.94863157  0.08947674  0.20574151     0.11400
H1106       H  0.88499285  0.05855873  0.19330161     0.13300
H1107       H  0.85088355  0.07941824  0.19746655     0.09800
H1108       H  0.83272840  0.10747125  0.20930854     0.11900
H1109       H  0.91261346  0.13321232  0.23089023     0.08500
H1110       H  0.93018087  0.10427960  0.21935498     0.11300
C1111       C  0.90849788  0.19110829  0.25130485    -0.03300
C1112       C  0.93246361  0.22339271  0.24978101    -0.05900
C1113       C  0.95866620  0.23825257  0.25688740    -0.21000
C1114       C  0.96159804  0.22128598  0.26569735     0.24700
C1115       C  0.93747219  0.18888893  0.26721054    -0.18600
C1116       C  0.91139684  0.17398494  0.26004772    -0.08500
C1117       C  0.98941825  0.23866277  0.27328444    -0.18800
C1118       C  0.99859849  0.22389510  0.28055796    -0.23600
C1119       C  0.02620456  0.24095592  0.28821736     0.26800
C1120       C  0.03859251  0.22325710  0.29312833    -0.20400
C1121       C  0.06425637  0.23782891  0.30043664    -0.10000
C1122       C  0.07815584  0.27050501  0.30304622    -0.10600
C1123       C  0.06558453  0.28827290  0.29831858    -0.03500
C1124       C  0.03977152  0.27366074  0.29100723    -0.18600
H1125       H  0.93102277  0.23717135  0.24306310     0.10500
H1126       H  0.97669271  0.26320163  0.25551099     0.10500
H1127       H  0.93794606  0.17501118  0.27404331     0.10200
H1128       H  0.89293517  0.14930682  0.26158405     0.11300
H1129       H  0.00334109  0.26462660  0.27254957     0.11400
H1130       H  0.98626748  0.19787396  0.28070541     0.13300
H1131       H  0.02851438  0.19802073  0.29123627     0.09800
H1132       H  0.07351284  0.22365751  0.30401032     0.11900
H1133       H  0.07592015  0.31351660  0.30024642     0.08500
H1134       H  0.03044779  0.28802111  0.28769697     0.11300
C1135       C  0.72058172  0.92933980  0.30415481    -0.03300
C1136       C  0.70043182  0.94133737  0.30147895    -0.05900
C1137       C  0.71095289  0.96747981  0.29435957    -0.21000
C1138       C  0.74161488  0.98183769  0.28964951     0.24700
C1139       C  0.76202323  0.97018786  0.29254954    -0.18600
C1140       C  0.75153821  0.94416213  0.29969982    -0.08500
C1141       C  0.75177074  0.00925732  0.28195617    -0.18800
C1142       C  0.77416695  0.01675288  0.27417321    -0.23600
C1143       C  0.78534556  0.04415999  0.26640674     0.26800
C1144       C  0.80288049  0.04470891  0.25720124    -0.20400
C1145       C  0.81608455  0.07093854  0.25007808    -0.10000
C1146       C  0.81194253  0.09721989  0.25196773    -0.10600
C1147       C  0.79369080  0.09648671  0.26097584    -0.03500
C1148       C  0.78069972  0.07033912  0.26818968    -0.18600
H1149       H  0.67644687  0.93023013  0.30482765     0.10500
H1150       H  0.69488951  0.97617669  0.29237877     0.10500
H1151       H  0.78623459  0.98129295  0.28944086     0.10200
H1152       H  0.76755442  0.93546216  0.30175206     0.11300
H1153       H  0.73923016  0.02248415  0.28243994     0.11400
H1154       H  0.78442167  0.00149610  0.27317045     0.13300
H1155       H  0.80680096  0.02492179  0.25559148     0.09800
H1156       H  0.82970302  0.07074553  0.24310211     0.11900
H1157       H  0.79049499  0.11668711  0.26266191     0.08500
H1158       H  0.76802540  0.07135601  0.27528799     0.11300
C1159       C  0.95641092  0.89834179  0.17181809    -0.03300
C1160       C  0.97136647  0.87993561  0.17248030    -0.05900
C1161       C  0.95994654  0.85380342  0.17960862    -0.21000
C1162       C  0.93339624  0.84536564  0.18633562     0.24700
C1163       C  0.91844858  0.86388255  0.18577039    -0.18600
C1164       C  0.92993916  0.89016461  0.17860938    -0.08500
C1165       C  0.92150311  0.81632681  0.19339750    -0.18800
C1166       C  0.90317401  0.81057574  0.20234657    -0.23600
C1167       C  0.89224466  0.78168942  0.20942813     0.26800
C1168       C  0.88413247  0.78307539  0.22031980    -0.20400
C1169       C  0.87344888  0.75646029  0.22721781    -0.10000
C1170       C  0.87052315  0.72761799  0.22339944    -0.10600
C1171       C  0.87829912  0.72608497  0.21244339    -0.03500
C1172       C  0.88887123  0.75269805  0.20552712    -0.18600
H1173       H  0.99184934  0.88554199  0.16740231     0.10500
H1174       H  0.97189889  0.83999472  0.17983106     0.10500
H1175       H  0.89743607  0.85774196  0.19060605     0.10200
H1176       H  0.91769614  0.90366429  0.17822977     0.11300
H1177       H  0.92967436  0.79980071  0.19137308     0.11400
H1178       H  0.89730701  0.82841868  0.20497564     0.13300
H1179       H  0.88604303  0.80488499  0.22351783     0.09800
H1180       H  0.86675751  0.75841653  0.23547479     0.11900
H1181       H  0.87636587  0.70435609  0.20918437     0.08500
H1182       H  0.89384155  0.75019197  0.19710175     0.11300
C1183       C  0.90379677  0.69115326  0.25367229    -0.03300
C1184       C  0.92700438  0.68281276  0.25134161    -0.05900
C1185       C  0.95349088  0.69275310  0.25822548    -0.21000
C1186       C  0.95728903  0.71105691  0.26762393     0.24700
C1187       C  0.93374988  0.71909948  0.26997244    -0.18600
C1188       C  0.90747000  0.70933073  0.26304534    -0.08500
C1189       C  0.98531978  0.72000247  0.27490475    -0.18800
C1190       C  0.99456246  0.74167653  0.28307003    -0.23600
C1191       C  0.02248902  0.75050663  0.29034030     0.26800
C1192       C  0.03560400  0.77950027  0.29618025    -0.20400
C1193       C  0.06205034  0.78913613  0.30300058    -0.10000
C1194       C  0.07575124  0.76980562  0.30420918    -0.10600
C1195       C  0.06237114  0.74045625  0.29862194    -0.03500
C1196       C  0.03586133  0.73075905  0.29178103    -0.18600
H1197       H  0.92472908  0.66873777  0.24416508     0.10500
H1198       H  0.97102796  0.68596875  0.25621877     0.10500
H1199       H  0.93477070  0.73213318  0.27725924     0.10200
H1200       H  0.88938725  0.71501404  0.26526855     0.11300
H1201       H  0.99933415  0.70875262  0.27319753     0.11400
H1202       H  0.98221604  0.75485377  0.28429073     0.13300
H1203       H  0.02564622  0.79502335  0.29533477     0.09800
H1204       H  0.07213369  0.81189951  0.30725159     0.11900
H1205       H  0.07271232  0.72527517  0.29946956     0.08500
H1206       H  0.02593114  0.70776452  0.28774083     0.11300
C1207       C  0.81400132  0.70008495  0.25476878    -0.03300
C1208       C  0.83466231  0.72707733  0.26111051    -0.05900
C1209       C  0.82261947  0.74141077  0.26799096    -0.21000
C1210       C  0.78962320  0.72959612  0.26865315     0.24700
C1211       C  0.76876669  0.70288505  0.26222359    -0.18600
C1212       C  0.78084752  0.68845548  0.25533908    -0.08500
C1213       C  0.77835036  0.74542096  0.27639667    -0.18800
C1214       C  0.74866633  0.74122153  0.27637568    -0.23600
C1215       C  0.73804337  0.75673984  0.28445574     0.26800
C1216       C  0.70533864  0.74167730  0.28707310    -0.20400
C1217       C  0.69446068  0.75509705  0.29483647    -0.10000
C1218       C  0.71613065  0.78399317  0.30001409    -0.10600
C1219       C  0.74866342  0.79965642  0.29720053    -0.03500
C1220       C  0.75958932  0.78621272  0.28947335    -0.18600
H1221       H  0.86024127  0.73732633  0.26097299     0.10500
H1222       H  0.83928694  0.76192873  0.27284097     0.10500
H1223       H  0.74309804  0.69253197  0.26255123     0.10200
H1224       H  0.76401171  0.66831678  0.25042073     0.11300
H1225       H  0.79551313  0.76115221  0.28245401     0.11400
H1226       H  0.73096768  0.72515221  0.27053746     0.13300
H1227       H  0.68824743  0.71919652  0.28322513     0.09800
H1228       H  0.66920092  0.74294347  0.29685041     0.11900
H1229       H  0.76557291  0.82223703  0.30103455     0.08500
H1230       H  0.78476336  0.79918991  0.28737473     0.11300
C1231       C  0.26048691  0.11451967  0.22200733    -0.03300
C1232       C  0.23593141  0.12093397  0.22426333    -0.05900
C1233       C  0.20962801  0.11000519  0.21729790    -0.21000
C1234       C  0.20707025  0.09201892  0.20799057     0.24700
C1235       C  0.23185517  0.08582054  0.20561490    -0.18600
C1236       C  0.25841629  0.09712327  0.21255387    -0.08500
C1237       C  0.17898068  0.08148734  0.20072499    -0.18800
C1238       C  0.16665691  0.05477361  0.19456033    -0.23600
C1239       C  0.13857286  0.04451590  0.18728294     0.26800
C1240       C  0.11930163  0.01185443  0.18464462    -0.20400
C1241       C  0.09360849  0.00158456  0.17739805    -0.10000
C1242       C  0.08698273  0.02390907  0.17250049    -0.10600
C1243       C  0.10607237  0.05657185  0.17523422    -0.03500
C1244       C  0.13160213  0.06679456  0.18252977    -0.18600
H1245       H  0.23748076  0.13524063  0.23123576     0.10500
H1246       H  0.19115891  0.11559408  0.21919748     0.10500
H1247       H  0.23111312  0.07287142  0.19831497     0.10200
H1248       H  0.27725511  0.09215393  0.21057253     0.11300
H1249       H  0.16705199  0.09536946  0.20095460     0.11400
H1250       H  0.17659734  0.03912227  0.19517797     0.13300
H1251       H  0.12426221  0.99424992  0.18815718     0.09800
H1252       H  0.07939838  0.97624766  0.17544586     0.11900
H1253       H  0.10165077  0.07437781  0.17158306     0.08500
H1254       H  0.14640107  0.09226739  0.18413223     0.11300
C1255       C  0.22445231  0.90842503  0.30250364    -0.03300
C1256       C  0.25489790  0.91889410  0.29806436    -0.05900
C1257       C  0.26862764  0.94477822  0.29075980    -0.21000
C1258       C  0.25209479  0.96049478  0.28769674     0.24700
C1259       C  0.22177052  0.95019104  0.29232434    -0.18600
C1260       C  0.20812207  0.92439096  0.29962219    -0.08500
C1261       C  0.26768926  0.98829614  0.28004872    -0.18800
C1262       C  0.25121237  0.99851448  0.27405066    -0.23600
C1263       C  0.26636793  0.02694007  0.26666372     0.26800
C1264       C  0.24741321  0.02980801  0.25857843    -0.20400
C1265       C  0.26017750  0.05664887  0.25171221    -0.10000
C1266       C  0.29222495  0.08136914  0.25280251    -0.10600
C1267       C  0.31125314  0.07865043  0.26091154    -0.03500
C1268       C  0.29847544  0.05181838  0.26780090    -0.18600
H1269       H  0.26786041  0.90683580  0.30018975     0.10500
H1270       H  0.29212526  0.95239185  0.28742127     0.10500
H1271       H  0.20867364  0.96227295  0.29052290     0.10200
H1272       H  0.18472942  0.91681123  0.30304907     0.11300
H1273       H  0.29348253  0.99992329  0.27911460     0.11400
H1274       H  0.22522053  0.98494287  0.27424453     0.13300
H1275       H  0.22257522  0.01114496  0.25755520     0.09800
H1276       H  0.24500215  0.05784272  0.24546856     0.11900
H1277       H  0.33584685  0.09766189  0.26211173     0.08500
H1278       H  0.31363443  0.05117131  0.27414997     0.11300
C1279       C  0.29343021  0.17647313  0.25323727    -0.03300
C1280       C  0.26033878  0.16476187  0.25400204    -0.05900
C1281       C  0.24836110  0.17851988  0.26119013    -0.21000
C1282       C  0.26893067  0.20428919  0.26793843     0.24700
C1283       C  0.30212999  0.21615687  0.26725310    -0.18600
C1284       C  0.31416581  0.20245317  0.25998211    -0.08500
C1285       C  0.25421501  0.21693148  0.27569447    -0.18800
C1286       C  0.27061851  0.24326647  0.28199859    -0.23600
C1287       C  0.25467060  0.25495839  0.28956877     0.26800
C1288       C  0.27075770  0.28763974  0.29244157    -0.20400
C1289       C  0.25645123  0.29964194  0.29942211    -0.10000
C1290       C  0.22596413  0.27905263  0.30384006    -0.10600
C1291       C  0.21006380  0.24625862  0.30116935    -0.03500
C1292       C  0.22424029  0.23427378  0.29412894    -0.18600
H1293       H  0.24326705  0.14489506  0.24910643     0.10500
H1294       H  0.22268748  0.16870105  0.26152640     0.10500
H1295       H  0.31902349  0.23553902  0.27240067     0.10200
H1296       H  0.33972551  0.21177787  0.25991408     0.11300
H1297       H  0.22822552  0.20409324  0.27596861     0.11400
H1298       H  0.29645098  0.25782687  0.28132123     0.13300
H1299       H  0.29428922  0.30404443  0.28913736     0.09800
H1300       H  0.26907310  0.32505095  0.30134129     0.11900
H1301       H  0.18660697  0.22994889  0.30454696     0.08500
H1302       H  0.21146018  0.20876468  0.29244128     0.11300
C1303       C  0.37642526  0.74071877  0.52699503    -0.03300
C1304       C  0.40381750  0.74684564  0.53291672    -0.05900
C1305       C  0.41945762  0.77381314  0.53969535    -0.21000
C1306       C  0.40828350  0.79541970  0.54066359     0.24700
C1307       C  0.37987199  0.78838088  0.53519848    -0.18600
C1308       C  0.36420806  0.76139458  0.52841917    -0.08500
C1309       C  0.42712611  0.82504591  0.54733213    -0.18800
C1310       C  0.42673435  0.85245663  0.54563116    -0.23600
C1311       C  0.44692060  0.88292504  0.55176101     0.26800
C1312       C  0.43783466  0.90623809  0.55182840    -0.20400
C1313       C  0.45657726  0.93566083  0.55713272    -0.10000
C1314       C  0.48514096  0.94285114  0.56253546    -0.10600
C1315       C  0.49437202  0.91943622  0.56235171    -0.03500
C1316       C  0.47557885  0.88997459  0.55702685    -0.18600
H1317       H  0.41380713  0.73136866  0.53205280     0.10500
H1318       H  0.44101847  0.77838571  0.54392328     0.10500
H1319       H  0.36968529  0.80364739  0.53607708     0.10200
H1320       H  0.34287631  0.75712069  0.52410644     0.11300
H1321       H  0.44283457  0.82443854  0.55351221     0.11400
H1322       H  0.41109153  0.85297425  0.53940076     0.13300
H1323       H  0.41608455  0.90168696  0.54774261     0.09800
H1324       H  0.44877645  0.95306621  0.55698994     0.11900
H1325       H  0.51624712  0.92346441  0.56606944     0.08500
H1326       H  0.48416145  0.87324162  0.55683998     0.11300
C1327       C  0.48029133  0.51903298  0.56321029    -0.03300
C1328       C  0.49804646  0.54538506  0.55622212    -0.05900
C1329       C  0.48362644  0.56028714  0.55082683    -0.21000
C1330       C  0.45103775  0.54982891  0.55235198     0.24700
C1331       C  0.43326446  0.52411435  0.55958088    -0.18600
C1332       C  0.44767331  0.50896229  0.56493589    -0.08500
C1333       C  0.43693905  0.56597102  0.54590751    -0.18800
C1334       C  0.40745243  0.56203801  0.54735154    -0.23600
C1335       C  0.39462589  0.57840159  0.54036078     0.26800
C1336       C  0.36128036  0.56495414  0.53930203    -0.20400
C1337       C  0.34859740  0.57870317  0.53226217    -0.10000
C1338       C  0.36906424  0.60637833  0.52617293    -0.10600
C1339       C  0.40234658  0.62068834  0.52768414    -0.03500
C1340       C  0.41494717  0.60707501  0.53470639    -0.18600
H1341       H  0.52321163  0.55412991  0.55476460     0.10500
H1342       H  0.49809564  0.58007473  0.54535281     0.10500
H1343       H  0.40810004  0.51505817  0.56101872     0.10200
H1344       H  0.43277938  0.48942893  0.57035563     0.11300
H1345       H  0.45194413  0.58170361  0.53942640     0.11400
H1346       H  0.39159897  0.54561436  0.55353372     0.13300
H1347       H  0.34498300  0.54323411  0.54370671     0.09800
H1348       H  0.32284208  0.56724109  0.53139270     0.11900
H1349       H  0.41887856  0.64237785  0.52331380     0.08500
H1350       H  0.44068206  0.61928187  0.53565316     0.11300
C1351       C  0.24015834  0.61049333  0.52521578    -0.03300
C1352       C  0.22245752  0.57701771  0.52676848    -0.05900
C1353       C  0.19553344  0.56299605  0.53352564    -0.21000
C1354       C  0.18531036  0.58192993  0.53883545     0.24700
C1355       C  0.20381557  0.61562612  0.53769099    -0.18600
C1356       C  0.23096577  0.62972603  0.53094248    -0.08500
C1357       C  0.15494376  0.56520335  0.54522074    -0.18800
C1358       C  0.13740056  0.57858399  0.54801838    -0.23600
C1359       C  0.10559155  0.56037451  0.55346133     0.26800
C1360       C  0.09479439  0.57718527  0.55976797    -0.20400
C1361       C  0.06451117  0.56122126  0.56467061    -0.10000
C1362       C  0.04391510  0.52781688  0.56328439    -0.10600
C1363       C  0.05483266  0.51114771  0.55684491    -0.03500
C1364       C  0.08515229  0.52711257  0.55199226    -0.18600
H1365       H  0.22905640  0.56147372  0.52259266     0.10500
H1366       H  0.18207098  0.53706569  0.53435103     0.10500
H1367       H  0.19751094  0.63126339  0.54191650     0.10200
H1368       H  0.24429826  0.65561188  0.53001055     0.11300
H1369       H  0.14597111  0.54017357  0.54725065     0.11400
H1370       H  0.14619031  0.60368608  0.54622918     0.13300
H1371       H  0.10990435  0.60289888  0.56090605     0.09800
H1372       H  0.05769733  0.57564205  0.56935512     0.11900
H1373       H  0.03954424  0.48557399  0.55545672     0.08500
H1374       H  0.09202867  0.51341279  0.54685980     0.11300
C1375       C  0.62137991  0.23492670  0.46088714    -0.03300
C1376       C  0.58843690  0.21887068  0.45847333    -0.05900
C1377       C  0.57481927  0.19260426  0.45139876    -0.21000
C1378       C  0.59360188  0.18133629  0.44667971     0.24700
C1379       C  0.62682556  0.19804043  0.44872753    -0.18600
C1380       C  0.64059608  0.22467503  0.45575074    -0.08500
C1381       C  0.57738808  0.15192105  0.43981611    -0.18800
C1382       C  0.58773832  0.13087652  0.43890577    -0.23600
C1383       C  0.56906451  0.09936406  0.43324103     0.26800
C1384       C  0.57353008  0.07396477  0.43633738    -0.20400
C1385       C  0.55561514  0.04368467  0.43148815    -0.10000
C1386       C  0.53249209  0.03778629  0.42343795    -0.10600
C1387       C  0.52907388  0.06380883  0.42003156    -0.03500
C1388       C  0.54709766  0.09411803  0.42486291    -0.18600
H1389       H  0.57296290  0.22630187  0.46219150     0.10500
H1390       H  0.54926080  0.18042127  0.44986603     0.10500
H1391       H  0.64217457  0.19057476  0.44495047     0.10200
H1392       H  0.66608867  0.23671432  0.45736726     0.11300
H1393       H  0.55437372  0.14585732  0.43634396     0.11400
H1394       H  0.60917233  0.13549681  0.44327438     0.13300
H1395       H  0.59062216  0.07741116  0.44266052     0.09800
H1396       H  0.55955136  0.02456822  0.43413553     0.11900
H1397       H  0.51313276  0.06157240  0.41352115     0.08500
H1398       H  0.54401293  0.11345856  0.42188372     0.11300
C1399       C  0.37518219  0.74430888  0.48054446    -0.03300
C1400       C  0.40872774  0.76328656  0.47985472    -0.05900
C1401       C  0.42326322  0.78866388  0.47245850    -0.21000
C1402       C  0.40485035  0.79599028  0.46550247     0.24700
C1403       C  0.37113774  0.77695915  0.46611458    -0.18600
C1404       C  0.35648960  0.75130778  0.47355256    -0.08500
C1405       C  0.42238039  0.82431125  0.45813398    -0.18800
C1406       C  0.40893823  0.83357915  0.45039664    -0.23600
C1407       C  0.42800157  0.86288822  0.44356636     0.26800
C1408       C  0.41588303  0.86515355  0.43340351    -0.20400
C1409       C  0.43317164  0.89236414  0.42680997    -0.10000
C1410       C  0.46282555  0.91808627  0.43030351    -0.10600
C1411       C  0.47467807  0.91615096  0.44054393    -0.03500
C1412       C  0.45748346  0.88897724  0.44711657    -0.18600
H1413       H  0.42395476  0.75867439  0.48509420     0.10500
H1414       H  0.44920255  0.80283386  0.47223954     0.10500
H1415       H  0.35588790  0.78185316  0.46103413     0.10200
H1416       H  0.33057683  0.73721359  0.47391578     0.11300
H1417       H  0.44821711  0.83801037  0.45909291     0.11400
H1418       H  0.38350966  0.81904129  0.44870865     0.13300
H1419       H  0.39303825  0.84573235  0.43053046     0.09800
H1420       H  0.42304087  0.89347500  0.41905932     0.11900
H1421       H  0.49742708  0.93561015  0.44345618     0.08500
H1422       H  0.46722454  0.88892631  0.45504680     0.11300
C1423       C  0.53419741  0.95100845  0.40069544    -0.03300
C1424       C  0.51606781  0.92538122  0.39349600    -0.05900
C1425       C  0.53085575  0.91438804  0.38636120    -0.21000
C1426       C  0.56423738  0.92828057  0.38625353     0.24700
C1427       C  0.58260750  0.95333113  0.39363906    -0.18600
C1428       C  0.56774395  0.96441299  0.40079266    -0.08500
C1429       C  0.57850257  0.91653880  0.37800645    -0.18800
C1430       C  0.60868220  0.92201507  0.37835827    -0.23600
C1431       C  0.62140963  0.90892488  0.37004497     0.26800
C1432       C  0.64539578  0.90224569  0.37307571    -0.20400
C1433       C  0.65738442  0.88924589  0.36553388    -0.10000
C1434       C  0.64591513  0.88317906  0.35478072    -0.10600
C1435       C  0.62252278  0.89050288  0.35163156    -0.03500
C1436       C  0.61039316  0.90332057  0.35917539    -0.18600
H1437       H  0.49041476  0.91391792  0.39308077     0.10500
H1438       H  0.51601973  0.89499757  0.38080159     0.10500
H1439       H  0.60844862  0.96502043  0.39379493     0.10200
H1440       H  0.58276367  0.98357628  0.40636634     0.11300
H1441       H  0.56269996  0.90141837  0.37154298     0.11400
H1442       H  0.62399953  0.93465358  0.38524618     0.13300
H1443       H  0.65448548  0.90659871  0.38135339     0.09800
H1444       H  0.67552276  0.88380204  0.36807426     0.11900
H1445       H  0.61358161  0.88612905  0.34333348     0.08500
H1446       H  0.59270648  0.90912620  0.35642955     0.11300
C1447       C  0.26829937  0.86178310  0.34994360    -0.03300
C1448       C  0.29849316  0.87188098  0.34540943    -0.05900
C1449       C  0.32561477  0.88503521  0.35204817    -0.21000
C1450       C  0.32302580  0.88855604  0.36329930     0.24700
C1451       C  0.29257265  0.87787495  0.36786359    -0.18600
C1452       C  0.26541444  0.86463987  0.36120642    -0.08500
C1453       C  0.35245609  0.90227831  0.37001382    -0.18800
C1454       C  0.35558782  0.91666804  0.37970790    -0.23600
C1455       C  0.38507644  0.92974556  0.38642140     0.26800
C1456       C  0.39116978  0.95317946  0.39432681    -0.20400
C1457       C  0.41848250  0.96549513  0.40091716    -0.10000
C1458       C  0.44018927  0.95447721  0.39973569    -0.10600
C1459       C  0.43387811  0.93094881  0.39186914    -0.03500
C1460       C  0.40659990  0.91850260  0.38535661    -0.18600
H1461       H  0.30096441  0.86943036  0.33673527     0.10500
H1462       H  0.34873370  0.89266260  0.34837626     0.10500
H1463       H  0.28950158  0.87911517  0.37655395     0.10200
H1464       H  0.24211996  0.85648767  0.36481937     0.11300
H1465       H  0.37273270  0.90172987  0.36651765     0.11400
H1466       H  0.33644979  0.92011087  0.38268537     0.13300
H1467       H  0.37472714  0.96192625  0.39542046     0.09800
H1468       H  0.42218939  0.98312590  0.40706792     0.11900
H1469       H  0.45002317  0.92209917  0.39064752     0.08500
H1470       H  0.40233571  0.89965159  0.37966395     0.11300
C1471       C  0.61974394  0.36594817  0.46039794    -0.03300
C1472       C  0.58937371  0.34705171  0.45566248    -0.05900
C1473       C  0.57623821  0.36121968  0.44909202    -0.21000
C1474       C  0.59312585  0.39452487  0.44706515     0.24700
C1475       C  0.62430723  0.41311178  0.45132770    -0.18600
C1476       C  0.63730291  0.39899585  0.45795777    -0.08500
C1477       C  0.57697608  0.40860530  0.44065192    -0.18800
C1478       C  0.58731104  0.44036304  0.44000358    -0.23600
C1479       C  0.56914630  0.45348537  0.43431724     0.26800
C1480       C  0.57494463  0.48415381  0.43715159    -0.20400
C1481       C  0.55736168  0.49667755  0.43234124    -0.10000
C1482       C  0.53314482  0.47873304  0.42464030    -0.10600
C1483       C  0.52886676  0.44880283  0.42133722    -0.03500
C1484       C  0.54651262  0.43637419  0.42611335    -0.18600
H1485       H  0.57525027  0.32154658  0.45736867     0.10500
H1486       H  0.55234808  0.34616660  0.44582067     0.10500
H1487       H  0.63880825  0.43856299  0.44970398     0.10200
H1488       H  0.66101227  0.41416615  0.46134784     0.11300
H1489       H  0.55429780  0.39159377  0.43690313     0.11400
H1490       H  0.60865959  0.45749474  0.44438983     0.13300
H1491       H  0.59282276  0.49831713  0.44324396     0.09800
H1492       H  0.56238703  0.52034679  0.43477054     0.11900
H1493       H  0.51260677  0.43490082  0.41487380     0.08500
H1494       H  0.54259337  0.41354135  0.42318802     0.11300
C1495       C  0.37523455  0.61645075  0.47863809    -0.03300
C1496       C  0.35759266  0.58387475  0.47561619    -0.05900
C1497       C  0.36868157  0.57182204  0.46743760    -0.21000
C1498       C  0.39796403  0.59178912  0.46218881     0.24700
C1499       C  0.41546726  0.62459844  0.46502330    -0.18600
C1500       C  0.40409385  0.63683215  0.47313327    -0.08500
C1501       C  0.40911682  0.57736251  0.45379514    -0.18800
C1502       C  0.44027815  0.58783052  0.45184858    -0.23600
C1503       C  0.45125700  0.57087434  0.44443139     0.26800
C1504       C  0.48069951  0.57294675  0.44657251    -0.20400
C1505       C  0.49159033  0.55677009  0.44001117    -0.10000
C1506       C  0.47354071  0.53850154  0.43100616    -0.10600
C1507       C  0.44447568  0.53710277  0.42865109    -0.03500
C1508       C  0.43332848  0.55297992  0.43531837    -0.18600
H1509       H  0.33510922  0.56755988  0.47959616     0.10500
H1510       H  0.35458580  0.54656049  0.46535405     0.10500
H1511       H  0.43774714  0.64086369  0.46093827     0.10200
H1512       H  0.41810667  0.66209426  0.47520766     0.11300
H1513       H  0.39096337  0.55548009  0.44985723     0.11400
H1514       H  0.45842955  0.60781751  0.45658459     0.13300
H1515       H  0.49515424  0.58678622  0.45345745     0.09800
H1516       H  0.51441070  0.55889310  0.44192215     0.11900
H1517       H  0.43006853  0.52328494  0.42177322     0.08500
H1518       H  0.41089424  0.55147399  0.43324698     0.11300
C1519       C  0.43924563  0.46505510  0.40132527    -0.03300
C1520       C  0.43511642  0.43805047  0.39548491    -0.05900
C1521       C  0.40899688  0.42106911  0.38850665    -0.21000
C1522       C  0.38681470  0.43110056  0.38689286     0.24700
C1523       C  0.39076584  0.45808061  0.39262794    -0.18600
C1524       C  0.41660844  0.47476451  0.39980426    -0.08500
C1525       C  0.35940038  0.41239672  0.37940445    -0.18800
C1526       C  0.34713430  0.42620747  0.37303220    -0.23600
C1527       C  0.32043630  0.40767233  0.36524758     0.26800
C1528       C  0.31891676  0.42262360  0.35562288    -0.20400
C1529       C  0.29344713  0.40626375  0.34831658    -0.10000
C1530       C  0.26872541  0.37488691  0.35063279    -0.10600
C1531       C  0.27014698  0.35978526  0.36021499    -0.03500
C1532       C  0.29583956  0.37597577  0.36745966    -0.18600
H1533       H  0.45230574  0.43013845  0.39610267     0.10500
H1534       H  0.40646644  0.40036120  0.38417180     0.10500
H1535       H  0.37354360  0.46591104  0.39174479     0.10200
H1536       H  0.41841707  0.49494043  0.40423502     0.11300
H1537       H  0.35060768  0.38685726  0.37856622     0.11400
H1538       H  0.35821074  0.45221049  0.37305415     0.13300
H1539       H  0.33745986  0.44705658  0.35377318     0.09800
H1540       H  0.29253370  0.41832025  0.34099028     0.11900
H1541       H  0.25102432  0.33570708  0.36217269     0.08500
H1542       H  0.29587286  0.36404037  0.37493075     0.11300
C1543       C  0.53255816  0.56216849  0.39969766    -0.03300
C1544       C  0.52246264  0.58477453  0.39942806    -0.05900
C1545       C  0.53542831  0.60995572  0.39186524    -0.21000
C1546       C  0.55927882  0.61362856  0.38453078     0.24700
C1547       C  0.56970345  0.59125635  0.38482774    -0.18600
C1548       C  0.55644031  0.56578720  0.39231701    -0.08500
C1549       C  0.57182278  0.64034600  0.37645923    -0.18800
C1550       C  0.60188432  0.65487036  0.37244910    -0.23600
C1551       C  0.61461918  0.68261642  0.36479221     0.26800
C1552       C  0.64735376  0.70605537  0.36515267    -0.20400
C1553       C  0.65999689  0.73280479  0.35822237    -0.10000
C1554       C  0.64022991  0.73625187  0.35065271    -0.10600
C1555       C  0.60772449  0.71236672  0.35000922    -0.03500
C1556       C  0.59495408  0.68585016  0.35704908    -0.18600
H1557       H  0.50474871  0.58333650  0.40513236     0.10500
H1558       H  0.52699693  0.62686621  0.39181589     0.10500
H1559       H  0.58745763  0.59286242  0.37910287     0.10200
H1560       H  0.56440358  0.54853240  0.39213844     0.11300
H1561       H  0.55635441  0.64969867  0.37429970     0.11400
H1562       H  0.61846874  0.64775218  0.37544529     0.13300
H1563       H  0.66304112  0.70399094  0.37097495     0.09800
H1564       H  0.68513683  0.75099874  0.35882083     0.11900
H1565       H  0.59217617  0.71458656  0.34416747     0.08500
H1566       H  0.56981767  0.66780303  0.35634566     0.11300
C1567       C  0.95176031  0.45686735  0.42433668    -0.03300
C1568       C  0.94390936  0.43097200  0.43144021    -0.05900
C1569       C  0.91454489  0.41540556  0.43694713    -0.21000
C1570       C  0.89181049  0.42492179  0.43547069     0.24700
C1571       C  0.89929496  0.45053207  0.42829185    -0.18600
C1572       C  0.92870610  0.46616945  0.42279110    -0.08500
C1573       C  0.86138022  0.40817724  0.44188952    -0.18800
C1574       C  0.83538697  0.41103815  0.44011442    -0.23600
C1575       C  0.80601234  0.39501936  0.44705149     0.26800
C1576       C  0.78643783  0.40864676  0.44782056    -0.20400
C1577       C  0.75971587  0.39535620  0.45476099    -0.10000
C1578       C  0.75183796  0.36792736  0.46103332    -0.10600
C1579       C  0.77047530  0.35334924  0.45981490    -0.03500
C1580       C  0.79713326  0.36662248  0.45289816    -0.18600
H1581       H  0.96087313  0.42302237  0.43284802     0.10500
H1582       H  0.90964463  0.39585238  0.44244219     0.10500
H1583       H  0.88297165  0.45924502  0.42699909     0.10200
H1584       H  0.93278454  0.48561743  0.41747307     0.11300
H1585       H  0.86079547  0.39307932  0.44854644     0.11400
H1586       H  0.83570748  0.42654085  0.43366786     0.13300
H1587       H  0.79237605  0.43021151  0.44327236     0.09800
H1588       H  0.74573423  0.40703639  0.45541887     0.11900
H1589       H  0.76476852  0.33184238  0.46435365     0.08500
H1590       H  0.81063606  0.35449033  0.45217787     0.11300
C1591       C  0.07134011  0.51367468  0.42996008    -0.03300
C1592       C  0.07074787  0.49698085  0.43943080    -0.05900
C1593       C  0.09779498  0.50862516  0.44608851    -0.21000
C1594       C  0.12593755  0.53748062  0.44355643     0.24700
C1595       C  0.12681196  0.55405820  0.43398435    -0.18600
C1596       C  0.09976861  0.54211395  0.42721712    -0.08500
C1597       C  0.15384567  0.54902464  0.45102961    -0.18800
C1598       C  0.17570732  0.58031777  0.45253694    -0.23600
C1599       C  0.20131021  0.59146417  0.46095463     0.26800
C1600       C  0.21171782  0.62105119  0.46612444    -0.20400
C1601       C  0.23448607  0.63153475  0.47448935    -0.10000
C1602       C  0.24788667  0.61294111  0.47772565    -0.10600
C1603       C  0.23844084  0.58390157  0.47224781    -0.03500
C1604       C  0.21528254  0.57318204  0.46397695    -0.18600
H1605       H  0.04939369  0.47465941  0.44164727     0.10500
H1606       H  0.09658032  0.49522334  0.45334286     0.10500
H1607       H  0.14838611  0.57598620  0.43164750     0.10200
H1608       H  0.10091102  0.55544060  0.41996752     0.11300
H1609       H  0.15474717  0.53118953  0.45617632     0.11400
H1610       H  0.17302738  0.59846000  0.44822553     0.13300
H1611       H  0.20158764  0.63573365  0.46387380     0.09800
H1612       H  0.24153532  0.65420958  0.47845505     0.11900
H1613       H  0.24850796  0.56916786  0.47449195     0.08500
H1614       H  0.20846682  0.55067905  0.45994008     0.11300
C1615       C  0.03469732  0.54302281  0.39852271    -0.03300
C1616       C  0.01258691  0.54666048  0.39210763    -0.05900
C1617       C  0.02303520  0.57120321  0.38438628    -0.21000
C1618       C  0.05578935  0.59222406  0.38262590     0.24700
C1619       C  0.07807500  0.58848912  0.38884840    -0.18600
C1620       C  0.06761869  0.56421219  0.39673456    -0.08500
C1621       C  0.06575208  0.61897091  0.37476303    -0.18800
C1622       C  0.09342777  0.63220086  0.36915759    -0.23600
C1623       C  0.10353931  0.66012086  0.36180910     0.26800
C1624       C  0.12194985  0.66343869  0.35253160    -0.20400
C1625       C  0.13297284  0.69037010  0.34577209    -0.10000
C1626       C  0.12631012  0.71467228  0.34834845    -0.10600
C1627       C  0.10794446  0.71145434  0.35759839    -0.03500
C1628       C  0.09652211  0.68435047  0.36426099    -0.18600
H1629       H  0.98705988  0.53038505  0.39289574     0.10500
H1630       H  0.00541121  0.57362705  0.37969798     0.10500
H1631       H  0.10355576  0.60488909  0.38788621     0.10200
H1632       H  0.08546138  0.56266141  0.40154938     0.11300
H1633       H  0.04912064  0.62739773  0.37329482     0.11400
H1634       H  0.10866759  0.62179576  0.36970380     0.13300
H1635       H  0.12783558  0.64519918  0.35053686     0.09800
H1636       H  0.14731799  0.69268156  0.33867830     0.11900
H1637       H  0.10293011  0.73021296  0.35973882     0.08500
H1638       H  0.08312030  0.68291983  0.37151300     0.11300
C1639       C  0.12105477  0.36586288  0.34990554    -0.03300
C1640       C  0.11036472  0.38524832  0.34523672    -0.05900
C1641       C  0.09689529  0.39902472  0.35176695    -0.21000
C1642       C  0.09364319  0.39354359  0.36307415     0.24700
C1643       C  0.10451147  0.37414313  0.36775316    -0.18600
C1644       C  0.11804433  0.36040019  0.36120500    -0.08500
C1645       C  0.08039886  0.40986726  0.36971493    -0.18800
C1646       C  0.06697515  0.39965230  0.37963266    -0.23600
C1647       C  0.05457575  0.41673014  0.38632073     0.26800
C1648       C  0.03209453  0.39980159  0.39457160    -0.20400
C1649       C  0.02077189  0.41531787  0.40129140    -0.10000
C1650       C  0.03190991  0.44825646  0.39995892    -0.10600
C1651       C  0.05426165  0.46514366  0.39165946    -0.03500
C1652       C  0.06563740  0.44968644  0.38497253    -0.18600
H1653       H  0.11279189  0.38996641  0.33654509     0.10500
H1654       H  0.08904623  0.41411220  0.34797156     0.10500
H1655       H  0.10338858  0.37015229  0.37646440     0.10200
H1656       H  0.12652362  0.34577477  0.36495156     0.11300
H1657       H  0.08073112  0.43045176  0.36602639     0.11400
H1658       H  0.06387825  0.37734110  0.38287904     0.13300
H1659       H  0.02336923  0.37448600  0.39586187     0.09800
H1660       H  0.00386458  0.40165710  0.40768754     0.11900
H1661       H  0.06298078  0.49038728  0.39026065     0.08500
H1662       H  0.08358728  0.46392269  0.37893626     0.11300
C1663       C  0.82107199  0.19015977  0.22866593    -0.03300
C1664       C  0.83973272  0.21488804  0.22118603    -0.05900
C1665       C  0.82786873  0.23287340  0.21629494    -0.21000
C1666       C  0.79703301  0.22677344  0.21875499     0.24700
C1667       C  0.77878438  0.20311208  0.22657731    -0.18600
C1668       C  0.79057278  0.18498251  0.23144213    -0.08500
C1669       C  0.78476299  0.24548853  0.21300340    -0.18800
C1670       C  0.75329379  0.23431274  0.21150645    -0.23600
C1671       C  0.74064085  0.25103574  0.20481070     0.26800
C1672       C  0.71058403  0.23243247  0.19988036    -0.20400
C1673       C  0.69793718  0.24669355  0.19322529    -0.10000
C1674       C  0.71485007  0.28008742  0.19145079    -0.10600
C1675       C  0.74455331  0.29899004  0.19665987    -0.03500
C1676       C  0.75740551  0.28459706  0.20327184    -0.18600
H1677       H  0.86353463  0.21999216  0.21900278     0.10500
H1678       H  0.84265222  0.25125128  0.21041563     0.10500
H1679       H  0.75546023  0.19865006  0.22907142     0.10200
H1680       H  0.77552956  0.16732145  0.23740025     0.11300
H1681       H  0.80222132  0.26784678  0.20912828     0.11400
H1682       H  0.73592538  0.21053514  0.21448076     0.13300
H1683       H  0.69706418  0.20659974  0.20100383     0.09800
H1684       H  0.67489242  0.23142474  0.18940071     0.11900
H1685       H  0.75807215  0.32478478  0.19548290     0.08500
H1686       H  0.78026168  0.29978997  0.20719934     0.11300
C1687       C  0.71111867  0.40996806  0.19487552    -0.03300
C1688       C  0.74429883  0.42632200  0.19687579    -0.05900
C1689       C  0.75854180  0.45298237  0.20379376    -0.21000
C1690       C  0.74017373  0.46438852  0.20877785     0.24700
C1691       C  0.70674093  0.44733286  0.20716221    -0.18600
C1692       C  0.69235554  0.42028843  0.20030532    -0.08500
C1693       C  0.75710160  0.49411959  0.21551864    -0.18800
C1694       C  0.74630430  0.51460745  0.21720365    -0.23600
C1695       C  0.76584503  0.54619315  0.22282298     0.26800
C1696       C  0.76079085  0.57161730  0.22030666    -0.20400
C1697       C  0.78022822  0.60214761  0.22487507    -0.10000
C1698       C  0.80554003  0.60828975  0.23202505    -0.10600
C1699       C  0.80915595  0.58211057  0.23504251    -0.03500
C1700       C  0.78959158  0.55157651  0.23052483    -0.18600
H1701       H  0.75945993  0.41888991  0.19291386     0.10500
H1702       H  0.78425747  0.46535743  0.20499404     0.25500
H1703       H  0.69167792  0.45483257  0.21113251     0.10200
H1704       H  0.66671407  0.40809858  0.19898407     0.11300
H1705       H  0.78094457  0.50081829  0.21833082     0.11400
H1706       H  0.72383030  0.50956055  0.21352290     0.13300
H1707       H  0.74223778  0.56807358  0.21457761     0.09800
H1708       H  0.77593012  0.62131958  0.22262378     0.11900
H1709       H  0.82666561  0.58450040  0.24096461     0.08500
H1710       H  0.79312085  0.53221139  0.23314936     0.11300
C1711       C  0.58091477  0.27337437  0.19428432    -0.03300
C1712       C  0.57120085  0.24273780  0.19852098    -0.05900
C1713       C  0.54379118  0.22681600  0.20507872    -0.21000
C1714       C  0.52553522  0.24113924  0.20758103     0.24700
C1715       C  0.53650838  0.27267342  0.20387667    -0.18600
C1716       C  0.56367414  0.28841774  0.19724699    -0.08500
C1717       C  0.49516503  0.22219292  0.21389635    -0.18800
C1718       C  0.47187347  0.22972181  0.21438181    -0.23600
C1719       C  0.44036861  0.21016400  0.22000402     0.26800
C1720       C  0.41697790  0.21875085  0.21846911    -0.20400
C1721       C  0.38679725  0.20106178  0.22330602    -0.10000
C1722       C  0.37887306  0.17412279  0.22987818    -0.10600
C1723       C  0.40256626  0.16579773  0.23156856    -0.03500
C1724       C  0.43287705  0.18359791  0.22672831    -0.18600
H1725       H  0.58403880  0.23054325  0.19642822     0.10500
H1726       H  0.53629173  0.20278633  0.20794115     0.10500
H1727       H  0.52429068  0.28542466  0.20596139     0.10200
H1728       H  0.57086800  0.31226937  0.19427331     0.11300
H1729       H  0.49141418  0.20031334  0.21770475     0.11400
H1730       H  0.47508762  0.25064282  0.21000401     0.13300
H1731       H  0.42193684  0.23915758  0.21340268     0.09800
H1732       H  0.36931607  0.20830457  0.22183071     0.11900
H1733       H  0.39828842  0.14563035  0.23655193     0.08500
H1734       H  0.45014768  0.17628874  0.22837018     0.11300
C1735       C  0.85291272  0.13288154  0.09232868    -0.03300
C1736       C  0.87802550  0.15191084  0.09959731    -0.05900
C1737       C  0.89444762  0.13935369  0.10513366    -0.21000
C1738       C  0.88669675  0.10745157  0.10350139     0.24700
C1739       C  0.86202148  0.08838837  0.09608488    -0.18600
C1740       C  0.84542814  0.10093619  0.09056359    -0.08500
C1741       C  0.90442352  0.09524396  0.10998852    -0.18800
C1742       C  0.90322064  0.06706402  0.10823691    -0.23600
C1743       C  0.92056749  0.05541597  0.11516691     0.26800
C1744       C  0.90857091  0.02222097  0.11592714    -0.20400
C1745       C  0.92349640  0.01020456  0.12262214    -0.10000
C1746       C  0.95101653  0.03116464  0.12866802    -0.10600
C1747       C  0.96369450  0.06446757  0.12762053    -0.03500
C1748       C  0.94874878  0.07648309  0.12092143    -0.18600
H1749       H  0.88465618  0.17662031  0.10112510     0.10500
H1750       H  0.91329019  0.15471206  0.11077740     0.10500
H1751       H  0.85481723  0.06357625  0.09461246     0.10200
H1752       H  0.82676563  0.08512509  0.08502406     0.11300
H1753       H  0.91894436  0.11035491  0.11667277     0.11400
H1754       H  0.88823730  0.05116925  0.10179691     0.13300
H1755       H  0.88714458  0.00545145  0.11149704     0.09800
H1756       H  0.91312686  0.98441818  0.12319298     0.11900
H1757       H  0.98507483  0.08130368  0.13204972     0.08500
H1758       H  0.95953047  0.10226142  0.12023366     0.11300
C1759       C  0.70538754  0.28241581  0.14463343    -0.03300
C1760       C  0.73745447  0.30134035  0.14126288    -0.05900
C1761       C  0.74981274  0.29073899  0.13303785    -0.21000
C1762       C  0.73070081  0.26068170  0.12810862     0.24700
C1763       C  0.69835086  0.24186450  0.13128377    -0.18600
C1764       C  0.68577801  0.25273461  0.13943821    -0.08500
C1765       C  0.74557256  0.24994840  0.11976198    -0.18800
C1766       C  0.73675382  0.21891051  0.11826915    -0.23600
C1767       C  0.75450843  0.20851010  0.11104286     0.26800
C1768       C  0.75464775  0.18034265  0.11369547    -0.20400
C1769       C  0.77152199  0.16995108  0.10730329    -0.10000
C1770       C  0.78834174  0.18724094  0.09797461    -0.10600
C1771       C  0.78760245  0.21504834  0.09513993    -0.03500
C1772       C  0.77099543  0.22570804  0.10163020    -0.18600
H1773       H  0.75315467  0.32441695  0.14503216     0.10500
H1774       H  0.77470214  0.30579472  0.13069837     0.10500
H1775       H  0.68272569  0.21888551  0.12745789     0.10200
H1776       H  0.66095048  0.23765195  0.14182999     0.11300
H1777       H  0.76658940  0.26847054  0.11553737     0.11400
H1778       H  0.71776549  0.20064205  0.12329764     0.13300
H1779       H  0.74193112  0.16648290  0.12083312     0.09800
H1780       H  0.77094040  0.14801117  0.10958755     0.11900
H1781       H  0.80018764  0.22882482  0.08799630     0.08500
H1782       H  0.77078046  0.24712301  0.09918448     0.11300
C1783       C  0.94505434  0.38952548  0.01630455    -0.03300
C1784       C  0.95012206  0.39853407  0.02735037    -0.05900
C1785       C  0.93661490  0.37539427  0.03557434    -0.21000
C1786       C  0.91838293  0.34264105  0.03297176     0.24700
C1787       C  0.91338125  0.33346007  0.02190892    -0.18600
C1788       C  0.92646513  0.35674790  0.01365092    -0.08500
C1789       C  0.90402795  0.31896361  0.04200378    -0.18800
C1790       C  0.89855137  0.28876415  0.04134900    -0.23600
C1791       C  0.88493208  0.26525182  0.05047464     0.26800
C1792       C  0.89147070  0.24012434  0.05091950    -0.20400
C1793       C  0.87831883  0.21691901  0.05915303    -0.10000
C1794       C  0.85792754  0.21807236  0.06706426    -0.10600
C1795       C  0.85122201  0.24309897  0.06660809    -0.03500
C1796       C  0.86462679  0.26652293  0.05842531    -0.18600
H1797       H  0.96428402  0.42365789  0.02960115     0.10500
H1798       H  0.94060434  0.38310175  0.04401603     0.10500
H1799       H  0.89869796  0.30845162  0.01961698     0.10200
H1800       H  0.92175045  0.34925994  0.00519754     0.11300
H1801       H  0.89976132  0.32746014  0.04965829     0.11400
H1802       H  0.90583940  0.28140289  0.03405154     0.13300
H1803       H  0.90673021  0.23836428  0.04484021     0.09800
H1804       H  0.88338488  0.19752207  0.05912791     0.11900
H1805       H  0.83556793  0.24457644  0.07256323     0.08500
H1806       H  0.85831730  0.28501429  0.05819914     0.11300
C1807       C  0.95553324  0.90277802  0.12553921    -0.03300
C1808       C  0.92230108  0.88585634  0.12366322    -0.05900
C1809       C  0.90815807  0.85838073  0.11711161    -0.21000
C1810       C  0.92674109  0.84682900  0.11238396     0.24700
C1811       C  0.96027019  0.86468786  0.11380310    -0.18600
C1812       C  0.97448467  0.89241060  0.12030380    -0.08500
C1813       C  0.90993480  0.81591204  0.10624473    -0.18800
C1814       C  0.92257142  0.79713976  0.10428738    -0.23600
C1815       C  0.90465430  0.76511067  0.09888388     0.26800
C1816       C  0.92201618  0.75260915  0.09388484    -0.20400
C1817       C  0.90631077  0.72220060  0.08901243    -0.10000
C1818       C  0.87254912  0.70322534  0.08903962    -0.10600
C1819       C  0.85529628  0.71550294  0.09438718    -0.03500
C1820       C  0.87101846  0.74604599  0.09916555    -0.18600
H1821       H  0.90705238  0.89339923  0.12749189     0.10500
H1822       H  0.88238247  0.84546251  0.11603987     0.10500
H1823       H  0.97567593  0.85737077  0.11000401     0.10200
H1824       H  0.00017602  0.90503822  0.12155171     0.11300
H1825       H  0.88556626  0.80777321  0.10365578     0.11400
H1826       H  0.94698953  0.80516363  0.10675854     0.13300
H1827       H  0.94797566  0.76641730  0.09379055     0.09800
H1828       H  0.92111837  0.71370026  0.08557605     0.11900
H1829       H  0.82941426  0.70124551  0.09491994     0.08500
H1830       H  0.85670283  0.75410117  0.10333614     0.11300
C1831       C  0.80504717  0.58374131  0.09642007    -0.03300
C1832       C  0.79824847  0.55330309  0.09279443    -0.05900
C1833       C  0.78420738  0.52668509  0.09975791    -0.21000
C1834       C  0.77613546  0.52950573  0.11052070     0.24700
C1835       C  0.78228435  0.55976528  0.11415440    -0.18600
C1836       C  0.79640984  0.58644752  0.10717816    -0.08500
C1837       C  0.76297110  0.50071031  0.11775086    -0.18800
C1838       C  0.74733262  0.49756587  0.12718275    -0.23600
C1839       C  0.73502256  0.46880287  0.13437431     0.26800
C1840       C  0.70942844  0.46155076  0.14142574    -0.20400
C1841       C  0.69757394  0.43519804  0.14847940    -0.10000
C1842       C  0.71123582  0.41552922  0.14873790    -0.10600
C1843       C  0.73708777  0.42292240  0.14175686    -0.03500
C1844       C  0.74892937  0.44931444  0.13467100    -0.18600
H1845       H  0.80426447  0.54982203  0.08465519     0.10500
H1846       H  0.77986448  0.50374651  0.09672415     0.10500
H1847       H  0.77701207  0.56329582  0.12243025     0.10200
H1848       H  0.80047133  0.60918028  0.11027473     0.11300
H1849       H  0.76556669  0.48083618  0.11495823     0.11400
H1850       H  0.74201470  0.51597105  0.12957426     0.13300
H1851       H  0.69846706  0.47629272  0.14145607     0.09800
H1852       H  0.67775350  0.43036807  0.15378866     0.11900
H1853       H  0.74845311  0.40856681  0.14186681     0.08500
H1854       H  0.76940805  0.45474021  0.12963927     0.11300
C1855       C  0.60568373  0.54123024  0.01589985    -0.03300
C1856       C  0.62247590  0.52466200  0.01614814    -0.05900
C1857       C  0.65031475  0.53618658  0.02240638    -0.21000
C1858       C  0.66182543  0.56433607  0.02863990     0.24700
C1859       C  0.64513038  0.58118107  0.02827653    -0.18600
C1860       C  0.61724742  0.56961650  0.02199108    -0.08500
C1861       C  0.69150080  0.57532664  0.03521181    -0.18800
C1862       C  0.69912709  0.59448287  0.04406057    -0.23600
C1863       C  0.72772552  0.60421537  0.05116881     0.26800
C1864       C  0.73250175  0.62436382  0.06012165    -0.20400
C1865       C  0.75846499  0.63384988  0.06718981    -0.10000
C1866       C  0.78021924  0.62320316  0.06552707    -0.10600
C1867       C  0.77565972  0.60311848  0.05660962    -0.03500
C1868       C  0.74984339  0.59380777  0.04947430    -0.18600
H1869       H  0.61398765  0.50278212  0.01147327     0.10500
H1870       H  0.66275731  0.52284920  0.02246296     0.10500
H1871       H  0.65365024  0.60346691  0.03267374     0.10200
H1872       H  0.60466671  0.58281086  0.02185336     0.11300
H1873       H  0.70651030  0.56574281  0.03284427     0.11400
H1874       H  0.68306155  0.60278858  0.04652906     0.13300
H1875       H  0.71597226  0.63275871  0.06169413     0.09800
H1876       H  0.76127173  0.64916605  0.07405654     0.11900
H1877       H  0.79239877  0.59499496  0.05503249     0.08500
H1878       H  0.74762611  0.57845217  0.04273725     0.11300
C1879       C  0.95505557  0.53627130  0.01287953    -0.03300
C1880       C  0.93999391  0.55183528  0.00829406    -0.05900
C1881       C  0.92874470  0.56740364  0.01499037    -0.21000
C1882       C  0.93174225  0.56704041  0.02637017     0.24700
C1883       C  0.94721415  0.55176572  0.03092947    -0.18600
C1884       C  0.95877089  0.53655349  0.02423287    -0.08500
C1885       C  0.91894939  0.58309991  0.03329781    -0.18800
C1886       C  0.90713793  0.57231787  0.04334064    -0.23600
C1887       C  0.89371138  0.58737390  0.05047388     0.26800
C1888       C  0.87190348  0.56856681  0.05863215    -0.20400
C1889       C  0.85936254  0.58189930  0.06576828    -0.10000
C1890       C  0.86866505  0.61446095  0.06501241    -0.10600
C1891       C  0.89066822  0.63343597  0.05687350    -0.03500
C1892       C  0.90310060  0.62005938  0.04966903    -0.18600
H1893       H  0.93693938  0.55185582  0.99953976     0.10500
H1894       H  0.91716822  0.57925876  0.01129857     0.10500
H1895       H  0.95082979  0.55191917  0.03964746     0.10200
H1896       H  0.97067022  0.52497956  0.02789465     0.11300
H1897       H  0.91747845  0.60292482  0.02976996     0.11400
H1898       H  0.90575793  0.55045707  0.04631040     0.13300
H1899       H  0.86454517  0.54341770  0.05949840     0.09800
H1900       H  0.84296757  0.56681945  0.07202658     0.11900
H1901       H  0.89812479  0.65859422  0.05601960     0.08500
H1902       H  0.92047769  0.63552809  0.04366003     0.11300
C1903       C  0.28816357  0.13333431  0.08918997    -0.03300
C1904       C  0.26788344  0.09968928  0.08858069    -0.05900
C1905       C  0.23706051  0.08457025  0.09304733    -0.21000
C1906       C  0.22530820  0.10225589  0.09833371     0.24700
C1907       C  0.24529992  0.13588937  0.09893184    -0.18600
C1908       C  0.27622347  0.15108479  0.09444035    -0.08500
C1909       C  0.19286946  0.08403813  0.10349370    -0.18800
C1910       C  0.17791176  0.09714863  0.10885598    -0.23600
C1911       C  0.14689577  0.07744975  0.11476771     0.26800
C1912       C  0.12719039  0.09042726  0.11681595    -0.20400
C1913       C  0.09886840  0.07322801  0.12290348    -0.10000
C1914       C  0.08981170  0.04275797  0.12721227    -0.10600
C1915       C  0.10945267  0.02973899  0.12509946    -0.03500
C1916       C  0.13759991  0.04681757  0.11899759    -0.18600
H1917       H  0.27536349  0.08435074  0.08489775     0.10500
H1918       H  0.22243900  0.05862770  0.09250944     0.10500
H1919       H  0.23764454  0.15070167  0.10297503     0.10200
H1920       H  0.29111950  0.17695495  0.09514798     0.11300
H1921       H  0.18078091  0.05804932  0.10288675     0.11400
H1922       H  0.18830236  0.12299195  0.10898295     0.13300
H1923       H  0.13390164  0.11410469  0.11378599     0.09800
H1924       H  0.08455132  0.08418296  0.12448894     0.11900
H1925       H  0.10349733  0.00655212  0.12840228     0.08500
H1926       H  0.15252613  0.03631562  0.11798676     0.11300
C1927       C  0.57906003  0.28429124  0.14779204    -0.03300
C1928       C  0.56158381  0.25103355  0.14577124    -0.05900
C1929       C  0.53620333  0.23792968  0.13836916    -0.21000
C1930       C  0.52741387  0.25753901  0.13271823     0.24700
C1931       C  0.54521423  0.29101716  0.13454824    -0.18600
C1932       C  0.57086850  0.30423872  0.14199439    -0.08500
C1933       C  0.49871079  0.24137819  0.12546845    -0.18800
C1934       C  0.48951191  0.25627869  0.11827375    -0.23600
C1935       C  0.46044837  0.23821731  0.11128924     0.26800
C1936       C  0.45948118  0.25046458  0.10099467    -0.20400
C1937       C  0.43290850  0.23348290  0.09412489    -0.10000
C1938       C  0.40646375  0.20407520  0.09747536    -0.10600
C1939       C  0.40700652  0.19232870  0.10791903    -0.03500
C1940       C  0.43360196  0.20918592  0.11475138    -0.18600
H1941       H  0.56726366  0.23488187  0.15001665     0.10500
H1942       H  0.52308550  0.21213144  0.13715412     0.10500
H1943       H  0.53909300  0.30704510  0.13049237     0.10200
H1944       H  0.58382078  0.32994266  0.14338285     0.11300
H1945       H  0.48480837  0.21532285  0.12591079     0.11400
H1946       H  0.50430266  0.28197990  0.11698517     0.13300
H1947       H  0.47957446  0.27299478  0.09818683     0.09800
H1948       H  0.43296503  0.24357887  0.08623102     0.11900
H1949       H  0.38706992  0.16976818  0.11076264     0.08500
H1950       H  0.43289066  0.19948401  0.12277224     0.11300
C1951       C  0.46046745  0.39572281  0.01431859    -0.03300
C1952       C  0.47721516  0.37937379  0.01581843    -0.05900
C1953       C  0.46440980  0.35185111  0.02235202    -0.21000
C1954       C  0.43470641  0.34017200  0.02757497     0.24700
C1955       C  0.41745061  0.35603483  0.02577425    -0.18600
C1956       C  0.43032044  0.38361699  0.01923931    -0.08500
C1957       C  0.42286203  0.31148469  0.03477084    -0.18800
C1958       C  0.40098246  0.30386079  0.04275395    -0.23600
C1959       C  0.39087005  0.27617127  0.05030568     0.26800
C1960       C  0.36118079  0.26309730  0.05558148    -0.20400
C1961       C  0.35102120  0.23743244  0.06287638    -0.10000
C1962       C  0.37030887  0.22393449  0.06512167    -0.10600
C1963       C  0.40039544  0.23764209  0.05992039    -0.03500
C1964       C  0.41060235  0.26344829  0.05269750    -0.18600
H1965       H  0.50040653  0.38820285  0.01202944     0.10500
H1966       H  0.47807029  0.33996591  0.02349715     0.10500
H1967       H  0.39402021  0.34728090  0.02931479     0.10200
H1968       H  0.41691356  0.39576373  0.01809749     0.11300
H1969       H  0.43360088  0.29672819  0.03361163     0.11400
H1970       H  0.38987737  0.31827664  0.04390317     0.13300
H1971       H  0.34569142  0.27277636  0.05404493     0.09800
H1972       H  0.32813702  0.22875863  0.06680427     0.11900
H1973       H  0.41649387  0.22876589  0.06126334     0.08500
H1974       H  0.43424540  0.27360312  0.04916716     0.11300
C1975       C  0.59947587  0.04075261  0.01488100    -0.03300
C1976       C  0.63066543  0.05978333  0.01078145    -0.05900
C1977       C  0.65713700  0.07068399  0.01771833    -0.21000
C1978       C  0.65286621  0.06311295  0.02888334     0.24700
C1979       C  0.62154411  0.04374860  0.03294329    -0.18600
C1980       C  0.59511672  0.03277020  0.02599818    -0.08500
C1981       C  0.68147974  0.07548389  0.03605314    -0.18800
C1982       C  0.68088428  0.08249734  0.04664902    -0.23600
C1983       C  0.70966416  0.09707924  0.05377198     0.26800
C1984       C  0.71103141  0.11663648  0.06245781    -0.20400
C1985       C  0.73769397  0.13107613  0.06933639    -0.10000
C1986       C  0.76325280  0.12566717  0.06781664    -0.10600
C1987       C  0.76170413  0.10550279  0.05929039    -0.03500
C1988       C  0.73519758  0.09142854  0.05227825    -0.18600
H1989       H  0.63444530  0.06613841  0.00221415     0.10500
H1990       H  0.68100242  0.08541428  0.01438943     0.10500
H1991       H  0.61738733  0.03663860  0.04143297     0.10200
H1992       H  0.57121011  0.01779997  0.02926451     0.11300
H1993       H  0.70407872  0.08122705  0.03229793     0.11400
H1994       H  0.65897550  0.07978893  0.05007322     0.13300
H1995       H  0.69154104  0.12108893  0.06384378     0.09800
H1996       H  0.73815553  0.14618672  0.07594325     0.11900
H1997       H  0.78120682  0.10104927  0.05795430     0.08500
H1998       H  0.73456562  0.07585146  0.04582136     0.11300
C1999       C  0.37963392  0.13420361  0.06782149    -0.03300
C2000       C  0.37334493  0.10292955  0.06993320    -0.05900
C2001       C  0.38589670  0.08870218  0.06318167    -0.21000
C2002       C  0.40473204  0.10518043  0.05408738     0.24700
C2003       C  0.41157986  0.13677519  0.05208154    -0.18600
C2004       C  0.39911352  0.15106813  0.05888519    -0.08500
C2005       C  0.41719953  0.08870687  0.04711661    -0.18800
C2006       C  0.42637556  0.09670472  0.03664306    -0.23600
C2007       C  0.43803143  0.07968570  0.02953706     0.26800
C2008       C  0.43984111  0.08515632  0.01822189    -0.20400
C2009       C  0.45111226  0.07022894  0.01122158    -0.10000
C2010       C  0.46088395  0.04953830  0.01540210    -0.10600
C2011       C  0.45919011  0.04396833  0.02667735    -0.03500
C2012       C  0.44805892  0.05897709  0.03369620    -0.18600
H2013       H  0.35876348  0.08945353  0.07684248     0.10500
H2014       H  0.38053507  0.06451659  0.06500632     0.10500
H2015       H  0.42672460  0.15069898  0.04535403     0.10200
H2016       H  0.40413126  0.17504710  0.05698542     0.11300
H2017       H  0.41698998  0.06806993  0.05067770     0.11400
H2018       H  0.42403538  0.11573840  0.03287717     0.13300
H2019       H  0.43254847  0.10110972  0.01477684     0.09800
H2020       H  0.45248914  0.07500976  0.00254342     0.11900
H2021       H  0.46684893  0.02822069  0.03004764     0.08500
H2022       H  0.44803884  0.05462711  0.04233976     0.11300
C2023       C  0.62365082  0.81598282  0.75651236    -0.03300
C2024       C  0.60409681  0.82968944  0.75541099    -0.05900
C2025       C  0.57401369  0.81567169  0.76046538    -0.21000
C2026       C  0.56234635  0.78748180  0.76667033     0.24700
C2027       C  0.58174806  0.77371364  0.76779997    -0.18600
C2028       C  0.61182180  0.78773039  0.76277835    -0.08500
C2029       C  0.53082345  0.77432447  0.77233585    -0.18800
C2030       C  0.51305579  0.74350303  0.77569014    -0.23600
C2031       C  0.48278845  0.73011018  0.78216458     0.26800
C2032       C  0.47116008  0.69999950  0.78714547    -0.20400
C2033       C  0.44384022  0.68669053  0.79373142    -0.10000
C2034       C  0.42708558  0.70299464  0.79546087    -0.10600
C2035       C  0.43798622  0.73268574  0.79021319    -0.03500
C2036       C  0.46554205  0.74615430  0.78364185    -0.18600
H2037       H  0.61160163  0.85138360  0.75082050     0.10500
H2038       H  0.55977984  0.82702769  0.75954422     0.10500
H2039       H  0.57436979  0.75265687  0.77280294     0.10200
H2040       H  0.62623669  0.77664972  0.76391114     0.11300
H2041       H  0.52243202  0.79093860  0.77379795     0.11400
H2042       H  0.52146122  0.72704139  0.77389570     0.13300
H2043       H  0.48368342  0.68691087  0.78612694     0.09800
H2044       H  0.43610768  0.66373266  0.79760521     0.11900
H2045       H  0.42561778  0.74586430  0.79137143     0.08500
H2046       H  0.47304576  0.76903679  0.77980216     0.11300
C2047       C  0.29200528  0.56848215  0.79554093    -0.03300
C2048       C  0.25870652  0.55059241  0.79383440    -0.05900
C2049       C  0.24507722  0.52332877  0.78716417    -0.21000
C2050       C  0.26423141  0.51292886  0.78210664     0.24700
C2051       C  0.29770241  0.53129144  0.78357262    -0.18600
C2052       C  0.31138855  0.55874099  0.79021923    -0.08500
C2053       C  0.24810801  0.48301910  0.77538288    -0.18800
C2054       C  0.26152415  0.46542033  0.77258666    -0.23600
C2055       C  0.24386767  0.43417023  0.76662959     0.26800
C2056       C  0.25424332  0.41194737  0.76764118    -0.20400
C2057       C  0.23729860  0.38170316  0.76266695    -0.10000
C2058       C  0.20940055  0.37267535  0.75651185    -0.10600
C2059       C  0.20004993  0.39576036  0.75506077    -0.03500
C2060       C  0.21706031  0.42601602  0.76001784    -0.18600
H2061       H  0.24304648  0.55744266  0.79776188     0.10500
H2062       H  0.21929426  0.50993602  0.78611566     0.10500
H2063       H  0.31349447  0.52476177  0.77959951     0.10200
H2064       H  0.33713259  0.57201530  0.79134252     0.11300
H2065       H  0.22321086  0.47407489  0.77330408     0.11400
H2066       H  0.28547740  0.47272206  0.77542394     0.13300
H2067       H  0.27514522  0.41770111  0.77251733     0.09800
H2068       H  0.24563094  0.36491676  0.76382193     0.11900
H2069       H  0.17968564  0.39111368  0.75016785     0.08500
H2070       H  0.20909338  0.44294133  0.75857885     0.11300
C2071       C  0.29326137  0.70234827  0.79502846    -0.03300
C2072       C  0.26699359  0.68210430  0.78837298    -0.05900
C2073       C  0.25318715  0.69490540  0.78147757    -0.21000
C2074       C  0.26505088  0.72816947  0.78111527     0.24700
C2075       C  0.29191596  0.74850836  0.78757289    -0.18600
C2076       C  0.30572901  0.73572135  0.79445132    -0.08500
C2077       C  0.24895800  0.74052884  0.77382361    -0.18800
C2078       C  0.25137755  0.76944618  0.77511264    -0.23600
C2079       C  0.23473081  0.78204927  0.76821096     0.26800
C2080       C  0.24448660  0.81469419  0.76913776    -0.20400
C2081       C  0.22858286  0.82755947  0.76347242    -0.10000
C2082       C  0.20210313  0.80821409  0.75671719    -0.10600
C2083       C  0.19272841  0.77555505  0.75556035    -0.03500
C2084       C  0.20879293  0.76262807  0.76124801    -0.18600
H2085       H  0.25678474  0.65629791  0.78859828     0.10500
H2086       H  0.23275077  0.67865267  0.77653489     0.10500
H2087       H  0.30267231  0.77432979  0.78731345     0.10200
H2088       H  0.32605308  0.75206274  0.79941674     0.11300
H2089       H  0.23397660  0.72463560  0.76737874     0.11400
H2090       H  0.26604772  0.78495845  0.78168945     0.13300
H2091       H  0.26429640  0.83034138  0.77441966     0.09800
H2092       H  0.23649627  0.85276015  0.76460039     0.11900
H2093       H  0.17254936  0.75946891  0.75056268     0.08500
H2094       H  0.20000021  0.73722950  0.76039030     0.11300
C2095       C  0.15107055  0.27420916  0.89646063    -0.03300
C2096       C  0.17033953  0.26686269  0.88990345    -0.05900
C2097       C  0.15766910  0.23700551  0.88480014    -0.21000
C2098       C  0.12534578  0.21331429  0.88612923     0.24700
C2099       C  0.10588687  0.22031982  0.89271841    -0.18600
C2100       C  0.11855779  0.25033106  0.89781405    -0.08500
C2101       C  0.11288745  0.18265603  0.87995599    -0.18800
C2102       C  0.08452930  0.15561426  0.88184075    -0.23600
C2103       C  0.07197878  0.12653658  0.87479602     0.26800
C2104       C  0.03868896  0.10594602  0.87385929    -0.20400
C2105       C  0.02595411  0.08019057  0.86650051    -0.10000
C2106       C  0.04632518  0.07433346  0.85998402    -0.10600
C2107       C  0.07964214  0.09370011  0.86144589    -0.03500
C2108       C  0.09233774  0.11940046  0.86878744    -0.18600
H2109       H  0.19535425  0.28462585  0.88859361     0.10500
H2110       H  0.17323464  0.23250543  0.87970251     0.10500
H2111       H  0.08064737  0.20320342  0.89375509     0.10200
H2112       H  0.10230523  0.25444257  0.90257470     0.11300
H2113       H  0.12780511  0.18291710  0.87331378     0.11400
H2114       H  0.06902030  0.15508045  0.88830727     0.13300
H2115       H  0.02245310  0.11052384  0.87853360     0.09800
H2116       H  0.00017366  0.06547707  0.86568635     0.11900
H2117       H  0.09603379  0.08946914  0.85672692     0.08500
H2118       H  0.11810025  0.13369934  0.86964139     0.11300
C2119       C  0.20938258  0.39299883  0.88883354    -0.03300
C2120       C  0.22391021  0.39190980  0.87906442    -0.05900
C2121       C  0.23760917  0.41824057  0.87201768    -0.21000
C2122       C  0.23707900  0.44632969  0.87450088     0.24700
C2123       C  0.22293746  0.44765578  0.88439005    -0.18600
C2124       C  0.20922553  0.42119955  0.89147124    -0.08500
C2125       C  0.25199072  0.47337878  0.86654763    -0.18800
C2126       C  0.24922100  0.49977706  0.86684167    -0.23600
C2127       C  0.26372525  0.52558373  0.85843295     0.26800
C2128       C  0.25064412  0.54536397  0.85672523    -0.20400
C2129       C  0.26312798  0.56928648  0.84867891    -0.10000
C2130       C  0.28908249  0.57396601  0.84219608    -0.10600
C2131       C  0.30270917  0.55475814  0.84411500    -0.03500
C2132       C  0.29038266  0.53104286  0.85217128    -0.18600
H2133       H  0.22503081  0.37077446  0.87690455     0.10500
H2134       H  0.24861332  0.41656466  0.86454640     0.10500
H2135       H  0.22247035  0.46892275  0.88678509     0.10200
H2136       H  0.19805767  0.42265864  0.89892676     0.11300
H2137       H  0.26475264  0.47044938  0.85979880     0.11400
H2138       H  0.23451038  0.50202497  0.87302541     0.13300
H2139       H  0.23036319  0.54195522  0.86151598     0.09800
H2140       H  0.25220513  0.58381122  0.84744447     0.11900
H2141       H  0.32305751  0.55807439  0.83938987     0.08500
H2142       H  0.30213525  0.51737877  0.85350395     0.11300
C2143       C  0.41414349  0.45192487  0.96906142    -0.03300
C2144       C  0.42191248  0.45609531  0.95791713    -0.05900
C2145       C  0.39786337  0.44568267  0.95001370    -0.21000
C2146       C  0.36547907  0.43045762  0.95305733     0.24700
C2147       C  0.35765727  0.42622990  0.96424848    -0.18600
C2148       C  0.38181890  0.43692517  0.97217332    -0.08500
C2149       C  0.34074376  0.42018051  0.94434425    -0.18800
C2150       C  0.31051738  0.39545637  0.94552129    -0.23600
C2151       C  0.28619053  0.38377440  0.93664158     0.26800
C2152       C  0.26148709  0.35148641  0.93676434    -0.20400
C2153       C  0.23767575  0.33948924  0.92874599    -0.10000
C2154       C  0.23770588  0.35966694  0.92048386    -0.10600
C2155       C  0.26231317  0.39208828  0.92036103    -0.03500
C2156       C  0.28639702  0.40405127  0.92833876    -0.18600
H2157       H  0.44673554  0.46784015  0.95535231     0.10500
H2158       H  0.40458113  0.44943789  0.94147769     0.10500
H2159       H  0.33303686  0.41544744  0.96692130     0.10200
H2160       H  0.37538043  0.43401752  0.98073132     0.11300
H2161       H  0.34839736  0.43200049  0.93647209     0.11400
H2162       H  0.30379113  0.38168545  0.95304629     0.13300
H2163       H  0.26057860  0.33543644  0.94311512     0.09800
H2164       H  0.21868310  0.31458384  0.92921543     0.11900
H2165       H  0.26296803  0.40822553  0.91409715     0.08500
H2166       H  0.30462130  0.42926534  0.92812134     0.11300
C2167       C  0.14605481  0.35871919  0.92053648    -0.03300
C2168       C  0.16511612  0.38069492  0.92864507    -0.05900
C2169       C  0.15163024  0.39180316  0.93627819    -0.21000
C2170       C  0.11873640  0.38111487  0.93607195     0.24700
C2171       C  0.09957397  0.35904156  0.92793490    -0.18600
C2172       C  0.11311513  0.34792337  0.92028892    -0.08500
C2173       C  0.10605229  0.39460634  0.94426235    -0.18800
C2174       C  0.07465354  0.38345553  0.94603734    -0.23600
C2175       C  0.06238843  0.39808707  0.95393579     0.26800
C2176       C  0.02985076  0.38058164  0.95689320    -0.20400
C2177       C  0.01679810  0.39392743  0.96383554    -0.10000
C2178       C  0.03610459  0.42506090  0.96798283    -0.10600
C2179       C  0.06868904  0.44248913  0.96517988    -0.03500
C2180       C  0.08168855  0.42934021  0.95816018    -0.18600
H2181       H  0.19042409  0.38895132  0.92926005     0.10500
H2182       H  0.16703411  0.40879618  0.94241454     0.10500
H2183       H  0.07430346  0.35061172  0.92722722     0.10200
H2184       H  0.09784349  0.33129666  0.91405753     0.11300
H2185       H  0.12374674  0.41431234  0.94917218     0.11400
H2186       H  0.05680299  0.36231098  0.94172475     0.13300
H2187       H  0.01435627  0.35660770  0.95370999     0.09800
H2188       H  0.99152193  0.38022114  0.96582061     0.11900
H2189       H  0.08390179  0.46667716  0.96823943     0.08500
H2190       H  0.10656321  0.44425051  0.95589184     0.11300
C2191       C  0.71758287  0.84918884  0.89577812    -0.03300
C2192       C  0.72287874  0.82946862  0.88865731    -0.05900
C2193       C  0.75277196  0.84052924  0.88378514    -0.21000
C2194       C  0.77836323  0.87155594  0.88593030     0.24700
C2195       C  0.77365091  0.89100496  0.89333305    -0.18600
C2196       C  0.74370785  0.88002076  0.89817791    -0.08500
C2197       C  0.80952108  0.88268229  0.88033122    -0.18800
C2198       C  0.83064132  0.91390871  0.87833636    -0.23600
C2199       C  0.85972652  0.92517018  0.87149543     0.26800
C2200       C  0.87138782  0.95423068  0.86584889    -0.20400
C2201       C  0.89765565  0.96525513  0.85888912    -0.10000
C2202       C  0.91328982  0.94768556  0.85749452    -0.10600
C2203       C  0.90243334  0.91911225  0.86345812    -0.03500
C2204       C  0.87582484  0.90789149  0.87039596    -0.18600
H2205       H  0.70368304  0.80531163  0.88684045     0.10500
H2206       H  0.75581459  0.82485347  0.87822742     0.10500
H2207       H  0.79316016  0.91454216  0.89558662     0.10200
H2208       H  0.74186318  0.89572756  0.90398648     0.11300
H2209       H  0.81375985  0.86444787  0.87690948     0.11400
H2210       H  0.82490583  0.93193491  0.88086030     0.13300
H2211       H  0.85962424  0.96813288  0.86661616     0.09800
H2212       H  0.90549628  0.98749303  0.85449579     0.11900
H2213       H  0.91413491  0.90518489  0.86262335     0.08500
H2214       H  0.86802091  0.88583466  0.87488158     0.11300
C2215       C  0.42333972  0.69490567  0.84169153    -0.03300
C2216       C  0.42635101  0.67261837  0.84822245    -0.05900
C2217       C  0.45118970  0.68304268  0.85585388    -0.21000
C2218       C  0.47318608  0.71592917  0.85726991     0.24700
C2219       C  0.47011794  0.73826722  0.85080103    -0.18600
C2220       C  0.44551047  0.72785613  0.84308853    -0.08500
C2221       C  0.50023266  0.72619382  0.86503400    -0.18800
C2222       C  0.51338466  0.75418124  0.87054422    -0.23600
C2223       C  0.54169632  0.76544720  0.87780155     0.26800
C2224       C  0.54557030  0.78550710  0.88667214    -0.20400
C2225       C  0.57287293  0.79788638  0.89329499    -0.10000
C2226       C  0.59720577  0.79112415  0.89097566    -0.10600
C2227       C  0.59343421  0.77115566  0.88209189    -0.03500
C2228       C  0.56587712  0.75826186  0.87560513    -0.18600
H2229       H  0.40979556  0.64706290  0.84732926     0.10500
H2230       H  0.45324502  0.66536641  0.86067203     0.10500
H2231       H  0.48724229  0.76374422  0.85146525     0.10200
H2232       H  0.44410667  0.74564843  0.83812259     0.11300
H2233       H  0.50889493  0.70972455  0.86647872     0.11400
H2234       H  0.50257993  0.76907623  0.86994479     0.13300
H2235       H  0.52746986  0.79170408  0.88845005     0.09800
H2236       H  0.57545432  0.81358152  0.90001515     0.11900
H2237       H  0.61191336  0.76563225  0.88014429     0.08500
H2238       H  0.56406739  0.74356309  0.86867358     0.11300
C2239       C  0.55147423  0.59882258  0.97348130    -0.03300
C2240       C  0.54604828  0.62381439  0.97628539    -0.05900
C2241       C  0.55639950  0.65037039  0.96936722    -0.21000
C2242       C  0.57293041  0.65263645  0.95968874     0.24700
C2243       C  0.57874230  0.62773305  0.95700687    -0.18600
C2244       C  0.56797687  0.60101427  0.96383229    -0.08500
C2245       C  0.58232157  0.68017837  0.95219943    -0.18800
C2246       C  0.60922183  0.69288966  0.94616305    -0.23600
C2247       C  0.61839473  0.71950325  0.93829184     0.26800
C2248       C  0.65095016  0.74163616  0.93659065    -0.20400
C2249       C  0.66056733  0.76609810  0.92886015    -0.10000
C2250       C  0.63782726  0.76851964  0.92239497    -0.10600
C2251       C  0.60512783  0.74614740  0.92408836    -0.03500
C2252       C  0.59549103  0.72200278  0.93199718    -0.18600
H2253       H  0.53311107  0.62231083  0.98367584     0.10500
H2254       H  0.55144782  0.66914191  0.97155205     0.10500
H2255       H  0.59066617  0.62836478  0.94946552     0.10200
H2256       H  0.57196931  0.58170291  0.96149997     0.11300
H2257       H  0.56729376  0.69086853  0.95191882     0.11400
H2258       H  0.62586032  0.68431571  0.94731656     0.13300
H2259       H  0.66903008  0.74013362  0.94132869     0.09800
H2260       H  0.68591751  0.78320625  0.92805213     0.11900
H2261       H  0.58689589  0.74665588  0.91914750     0.08500
H2262       H  0.57019982  0.70469784  0.93292937     0.11300
C2263       C  0.54646941  0.94742441  0.96747169    -0.03300
C2264       C  0.52603558  0.91533015  0.96435136    -0.05900
C2265       C  0.53685256  0.90013399  0.95730589    -0.21000
C2266       C  0.56831051  0.91663339  0.95323507     0.24700
C2267       C  0.58893133  0.94871068  0.95648976    -0.18600
C2268       C  0.57798714  0.96398796  0.96347161    -0.08500
C2269       C  0.57894315  0.89899110  0.94606280    -0.18800
C2270       C  0.60451151  0.91336849  0.93935447    -0.23600
C2271       C  0.61528834  0.89519640  0.93250322     0.26800
C2272       C  0.63434015  0.91015270  0.92328399    -0.20400
C2273       C  0.64523824  0.89392219  0.91674101    -0.10000
C2274       C  0.63734382  0.86238201  0.91931659    -0.10600
C2275       C  0.61872658  0.84758718  0.92861347    -0.03500
C2276       C  0.60798614  0.86383221  0.93518117    -0.18600
H2277       H  0.50164029  0.90209153  0.96735838     0.10500
H2278       H  0.52054509  0.87536758  0.95501411     0.10500
H2279       H  0.61362193  0.96199514  0.95383502     0.10200
H2280       H  0.59413215  0.98876456  0.96578403     0.11300
H2281       H  0.56425196  0.87297245  0.94609604     0.11400
H2282       H  0.61748106  0.93932452  0.93850379     0.13300
H2283       H  0.64060428  0.93438744  0.92108865     0.09800
H2284       H  0.65943260  0.90587466  0.90958329     0.11900
H2285       H  0.61301471  0.82362908  0.93095837     0.08500
H2286       H  0.59457383  0.85188947  0.94245443     0.11300
C2287       C  0.14704967  0.84988752  0.89581574    -0.03300
C2288       C  0.16616021  0.87541258  0.88865050    -0.05900
C2289       C  0.15436373  0.89356752  0.88378292    -0.21000
C2290       C  0.12309784  0.88680809  0.88592664     0.24700
C2291       C  0.10430172  0.86217077  0.89337559    -0.18600
C2292       C  0.11601482  0.84394276  0.89821618    -0.08500
C2293       C  0.11101111  0.90599190  0.88032241    -0.18800
C2294       C  0.07955664  0.89505406  0.87872230    -0.23600
C2295       C  0.06699619  0.91242466  0.87228169     0.26800
C2296       C  0.03634396  0.89450712  0.86764860    -0.20400
C2297       C  0.02419921  0.90922035  0.86094342    -0.10000
C2298       C  0.04227712  0.94237862  0.85882801    -0.10600
C2299       C  0.07223817  0.96071636  0.86394567    -0.03500
C2300       C  0.08454374  0.94590558  0.87059356    -0.18600
H2301       H  0.19032637  0.88113846  0.88673919     0.10500
H2302       H  0.16960614  0.91269523  0.87819853     0.10500
H2303       H  0.08060480  0.85706218  0.89565165     0.10200
H2304       H  0.10043203  0.82568934  0.90391385     0.11300
H2305       H  0.12870287  0.92872939  0.87673185     0.11400
H2306       H  0.06205491  0.87104058  0.88145279     0.13300
H2307       H  0.02208499  0.86878414  0.86894781     0.09800
H2308       H  0.00087760  0.89446680  0.85722907     0.11900
H2309       H  0.08662923  0.98636916  0.86254224     0.08500
H2310       H  0.10777045  0.96073402  0.87432910     0.11300
C2311       C  0.30107007  0.70943392  0.84101580    -0.03300
C2312       C  0.32235274  0.73978887  0.84547723    -0.05900
C2313       C  0.31128660  0.75452946  0.85266897    -0.21000
C2314       C  0.27888976  0.73901200  0.85573661     0.24700
C2315       C  0.25763938  0.70845062  0.85136725    -0.18600
C2316       C  0.26860860  0.69391614  0.84406169    -0.08500
C2317       C  0.26763566  0.75608300  0.86294034    -0.18800
C2318       C  0.24184973  0.74063862  0.86949230    -0.23600
C2319       C  0.22934393  0.75730662  0.87631565     0.26800
C2320       C  0.21140123  0.74170326  0.88564807    -0.20400
C2321       C  0.19797572  0.75581215  0.89202721    -0.10000
C2322       C  0.20178764  0.78567641  0.88916621    -0.10600
C2323       C  0.21940733  0.80123691  0.87974344    -0.03500
C2324       C  0.23315769  0.78726008  0.87338852    -0.18600
H2325       H  0.34742698  0.75251527  0.84319618     0.10500
H2326       H  0.32807525  0.77820885  0.85581933     0.10500
H2327       H  0.23233905  0.69611379  0.85328618     0.10200
H2328       H  0.25158060  0.67060021  0.84071469     0.11300
H2329       H  0.28162690  0.78216448  0.86304958     0.11400
H2330       H  0.22984377  0.71465059  0.87018570     0.13300
H2331       H  0.20767974  0.71842693  0.88800400     0.09800
H2332       H  0.18395624  0.74290300  0.89905326     0.11900
H2333       H  0.22278793  0.82433905  0.87734469     0.08500
H2334       H  0.24607350  0.79960378  0.86607948     0.11300
C2335       C  0.13669975  0.75756360  0.92001996    -0.03300
C2336       C  0.11110909  0.75343288  0.92663743    -0.05900
C2337       C  0.09614597  0.72753719  0.93390718    -0.21000
C2338       C  0.10640953  0.70517651  0.93483960     0.24700
C2339       C  0.13199149  0.70931229  0.92824672    -0.18600
C2340       C  0.14696713  0.73519604  0.92102771    -0.08500
C2341       C  0.08900443  0.67736618  0.94242544    -0.18800
C2342       C  0.09999851  0.65788139  0.94554254    -0.23600
C2343       C  0.08212665  0.62938703  0.95279341     0.26800
C2344       C  0.09896766  0.61606248  0.95771919    -0.20400
C2345       C  0.08319159  0.58902695  0.96445848    -0.10000
C2346       C  0.05021002  0.57473556  0.96638871    -0.10600
C2347       C  0.03313717  0.58756202  0.96137001    -0.03500
C2348       C  0.04884801  0.61452312  0.95459324    -0.18600
H2349       H  0.10282026  0.77040801  0.92637482     0.10500
H2350       H  0.07647783  0.72503069  0.93885416     0.10500
H2351       H  0.14031897  0.69239820  0.92838154     0.10200
H2352       H  0.16628490  0.73703237  0.91614885     0.11300
H2353       H  0.06651288  0.67341624  0.94571182     0.11400
H2354       H  0.12363362  0.66329089  0.94299245     0.13300
H2355       H  0.12448944  0.62671224  0.95638957     0.09800
H2356       H  0.09671740  0.57935067  0.96823657     0.11900
H2357       H  0.00756741  0.57653884  0.96267392     0.08500
H2358       H  0.03463953  0.62313708  0.95068456     0.11300
C2359       C  0.40836053  0.95617598  0.96806752    -0.03300
C2360       C  0.39706864  0.97557381  0.96382898    -0.05900
C2361       C  0.37014546  0.96234877  0.95702568    -0.21000
C2362       C  0.35416934  0.92958582  0.95424233     0.24700
C2363       C  0.36531348  0.91010076  0.95865185    -0.18600
C2364       C  0.39219787  0.92334456  0.96546014    -0.08500
C2365       C  0.32563600  0.91664819  0.94696677    -0.18800
C2366       C  0.31430704  0.88923351  0.94118960    -0.23600
C2367       C  0.28624284  0.87663415  0.93371635     0.26800
C2368       C  0.28276366  0.85452977  0.92562690    -0.20400
C2369       C  0.25660374  0.84163737  0.91851537    -0.10000
C2370       C  0.23313164  0.85036973  0.91938082    -0.10600
C2371       C  0.23644944  0.87243105  0.92747105    -0.03500
C2372       C  0.26261851  0.88530805  0.93461678    -0.18600
H2373       H  0.40924817  0.00097893  0.96573789     0.10500
H2374       H  0.36195008  0.97785078  0.95383267     0.10500
H2375       H  0.35318012  0.88457630  0.95704114     0.10200
H2376       H  0.40042466  0.90795815  0.96873819     0.11300
H2377       H  0.31470883  0.93128476  0.94595043     0.11400
H2378       H  0.32697158  0.87609506  0.94145371     0.13300
H2379       H  0.30046878  0.84730106  0.92476540     0.09800
H2380       H  0.25493076  0.82500101  0.91227385     0.11900
H2381       H  0.21834725  0.87905876  0.92847080     0.08500
H2382       H  0.26372685  0.90138546  0.94095681     0.11300
loop_ 
_geom_bond_atom_site_label_1 
_geom_bond_atom_site_label_2 
_geom_bond_distance 
_geom_bond_site_symmetry_2 
_ccdc_geom_bond_type 
C1            C2   1.549       .  S
C1            C7   1.541       .  S
C1            C5   1.539       .  S
C1         C2287   1.534       .  S
C2            H9   1.079       .  S
C2            C3   1.370       .  D
C3            C4   1.541       .  S
C3         C2335   1.498       .  S
C4            C8   1.538       .  S
C4            C6   1.536       .  S
C4           H10   1.106       .  S
C5           H11   1.086       .  S
C5            C6   1.367       .  D
C6         C2370   1.484       .  S
C7           H12   1.086       .  S
C7            C8   1.366       .  D
C8         C2322   1.487       .  S
C13          C14   1.546       .  S
C13          C19   1.538       .  S
C13          C17   1.534       .  S
C13        C2191   1.530       .  S
C14          H21   1.081       .  S
C14          C15   1.367       .  D
C15          C16   1.537       .  S
C15        C2274   1.484       .  S
C16          C20   1.540       .  S
C16          C18   1.544       .  S
C16          H22   1.108       .  S
C17          H23   1.085       .  S
C17          C18   1.369       .  D
C18        C2250   1.494       .  S
C19          H24   1.086       .  S
C19          C20   1.366       .  D
C20        C2226   1.483       .  S
C25          C26   1.541       .  S
C25          C31   1.534       .  S
C25          C29   1.545       .  S
C25        C2095   1.531       .  S
C26          H33   1.086       .  S
C26          C27   1.369       .  D
C27          C28   1.537       .  S
C27        C2154   1.488       .  S
C28          C32   1.538       .  S
C28          C30   1.539       .  S
C28          H34   1.108       .  S
C29          H35   1.081       .  S
C29          C30   1.369       .  D
C30        C2167   1.486       .  S
C31          H36   1.086       .  S
C31          C32   1.364       .  D
C32        C2119   1.485       .  S
O37         Cr55   1.982       .  S
O37          C45   1.262       .  A
O38         Cr55   2.007       .  S
O38          C39   1.266       .  A
C39          O40   1.262       .  A
C39        C2034   1.487       .  S
O40         Cr56   1.985       .  S
O41         Cr56   2.011       .  S
O41          C42   1.268       .  A
C42          O43   1.263       .  A
C42        C2071   1.487       .  S
O43         Cr57   1.982       .  S
O44         Cr57   2.012       .  S
O44          C45   1.267       .  A
C45        C2047   1.487       .  S
O46         Cr55   2.003       .  S
O46          C54   1.265       .  A
O47         Cr55   1.978       .  S
O47          C48   1.260       .  A
C48          O49   1.267       .  A
C48        C2215   1.485       .  S
O49         Cr56   2.012       .  S
O50         Cr56   1.981       .  S
O50          C51   1.261       .  A
C51          O52   1.266       .  A
C51        C2311   1.483       .  S
O52         Cr57   2.008       .  S
O53         Cr57   1.982       .  S
O53          C54   1.261       .  A
C54        C2130   1.482       .  S
Cr55         O58   1.775       .  S
Cr56         O58   1.777       .  S
Cr57         O58   1.776       .  S
N59          C64   1.353       .  A
N59          C63   1.354       .  A
N59          H91   1.039       .  S
N60          C67   1.352   1_545  A
N60          C68   1.352       .  A
N61          C66   1.354       .  A
N61          C65   1.353       .  A
N61          H92   1.038       .  S
N62          C69   1.352       .  A
N62          C70   1.352   1_565  A
C63          C71   1.387       .  A
C63          C79   1.415       .  A
C64          C80   1.416       .  A
C64          C72   1.387       .  A
C65          C73   1.387       .  A
C65          C82   1.416       .  A
C66          C81   1.415       .  A
C66          C74   1.387       .  A
C67          C79   1.413       .  A
C67          C75   1.386       .  A
C68          C82   1.414   1_556  A
C68          C76   1.386       .  A
C69          C77   1.386       .  A
C69          C80   1.415       .  A
C70          C78   1.386   1_545  A
C70          C81   1.414   1_556  A
C71          C72   1.374       .  A
C71          H83   1.082       .  S
C72          H84   1.082       .  S
C73          C74   1.375       .  A
C73          H85   1.082       .  S
C74          H86   1.082       .  S
C75          C76   1.373   1_565  A
C75          H87   1.082       .  S
C76          H88   1.082   1_556  S
C77          C78   1.372       .  A
C77          H89   1.082       .  S
C78          H90   1.082   1_556  S
C79        C2359   1.489       .  S
C80        C2263   1.490       .  S
C81        C1975   1.487       .  S
C82        C2010   1.488       .  S
C93          C94   1.539       .  S
C93          C99   1.537       .  S
C93          C97   1.543       .  S
C93        C1903   1.537       .  S
C94         H101   1.083       .  S
C94          C95   1.375       .  D
C95          C96   1.547       .  S
C95        C1962   1.506       .  S
C96         C100   1.541       .  S
C96          C98   1.540       .  S
C96         H102   1.104       .  S
C97         H103   1.080       .  S
C97          C98   1.365       .  D
C98        C1999   1.489       .  S
C99         H104   1.086       .  S
C99         C100   1.367       .  D
C100       C1938   1.492       .  S
C105        C106   1.544       .  S
C105        C111   1.536       .  S
C105        C109   1.539       .  S
C105       C1818   1.532       .  S
C106        H113   1.081       .  S
C106        C107   1.366       .  D
C107        C108   1.539       .  S
C107       C1890   1.486       .  S
C108        C112   1.546       .  S
C108        C110   1.539       .  S
C108        H114   1.108       .  S
C109        H115   1.086       .  S
C109        C110   1.366       .  D
C110       C1866   1.485       .  S
C111        H116   1.085       .  S
C111        C112   1.370       .  D
C112       C1831   1.499       .  S
C117        C118   1.548       .  S
C117        C123   1.539       .  S
C117        C121   1.536       .  S
C117       C1735   1.532       .  S
C118        H125   1.081       .  S
C118        C119   1.368       .  D
C119        C120   1.537       .  S
C119       C1986   1.481       .  S
C120        C124   1.539       .  S
C120        C122   1.541       .  S
C120        H126   1.109       .  S
C121        H127   1.086       .  S
C121        C122   1.367       .  D
C122       C1794   1.487       .  S
C123        H128   1.086       .  S
C123        C124   1.367       .  D
C124       C1770   1.490       .  S
O129       Cr147   2.002       .  S
O129        C137   1.265       .  A
O130       Cr147   1.990       .  S
O130        C131   1.264       .  A
C131        O132   1.266       .  A
C131       C1687   1.487       .  S
O132       Cr148   2.003       .  S
O133       Cr148   1.988       .  S
O133        C134   1.262       .  A
C134        O135   1.263       .  A
C134       C1674   1.482       .  S
O135       Cr149   1.994       .  S
O136       Cr149   1.986       .  S
O136        C137   1.262       .  A
C137       C1711   1.483       .  S
O138       Cr147   1.995       .  S
O138        C146   1.264       .  A
O139       Cr147   1.999       .  S
O139        C140   1.264       .  A
C140        O141   1.262       .  A
C140       C1842   1.485       .  S
O141       Cr148   1.988       .  S
O142       Cr148   2.003       .  S
O142        C143   1.266       .  A
C143        O144   1.262       .  A
C143       C1759   1.485       .  S
O144       Cr149   1.987       .  S
O145       Cr149   1.997       .  S
O145        C146   1.264       .  A
C146       C1927   1.487       .  S
Cr147       O150   1.780       .  S
Cr148       O150   1.777       .  S
Cr149       O150   1.779       .  S
N151        C156   1.353       .  A
N151        C155   1.353       .  A
N151        H183   1.040       .  S
N152        C159   1.354       .  A
N152        C160   1.352   1_655  A
N153        C158   1.355       .  A
N153        C157   1.352       .  A
N153        H184   1.040       .  S
N154        C161   1.350       .  A
N154        C162   1.351   1_655  A
C155        C163   1.387       .  A
C155        C171   1.415       .  A
C156        C172   1.415       .  A
C156        C164   1.387       .  A
C157        C165   1.388       .  A
C157        C174   1.416       .  A
C158        C173   1.413       .  A
C158        C166   1.385       .  A
C159        C171   1.415   1_556  A
C159        C167   1.386       .  A
C160        C174   1.415       .  A
C160        C168   1.386       .  A
C161        C169   1.387   1_655  A
C161        C172   1.412   1_556  A
C162        C170   1.385       .  A
C162        C173   1.410       .  A
C163        C164   1.374       .  A
C163        H175   1.082       .  S
C164        H176   1.082       .  S
C165        C166   1.375       .  A
C165        H177   1.082       .  S
C166        H178   1.082       .  S
C167        C168   1.374   1_655  A
C167        H179   1.082   1_556  S
C168        H180   1.082       .  S
C169        C170   1.372       .  A
C169        H181   1.082   1_556  S
C170        H182   1.082       .  S
C171       C1783   1.494       .  S
C172       C1879   1.485       .  S
C173       C2346   1.487       .  S
C174       C2178   1.487       .  S
N185        C190   1.353       .  A
N185        C189   1.353       .  A
N185        H217   1.039       .  S
N186        C193   1.352       .  A
N186        C194   1.352   1_556  A
N187        C192   1.355       .  A
N187        C191   1.355       .  A
N187        H218   1.039   1_554  S
N188        C195   1.354       .  A
N188        C196   1.352       .  A
C189        C197   1.388       .  A
C189        C205   1.415       .  A
C190        C206   1.415       .  A
C190        C198   1.386       .  A
C191        C199   1.386       .  A
C191        C208   1.418       .  A
C192        C207   1.420       .  A
C192        C200   1.388       .  A
C193        C205   1.413       .  A
C193        C201   1.386       .  A
C194        C208   1.415       .  A
C194        C202   1.387   1_554  A
C195        C203   1.386       .  A
C195        C206   1.415       .  A
C196        C204   1.387       .  A
C196        C207   1.415   1_556  A
C197        C198   1.373       .  A
C197        H209   1.082       .  S
C198        H210   1.082       .  S
C199        C200   1.375       .  A
C199        H211   1.082       .  S
C200        H212   1.082       .  S
C201        C202   1.373       .  A
C201        H213   1.082       .  S
C202        H214   1.082       .  S
C203        C204   1.374       .  A
C203        H215   1.082       .  S
C204        H216   1.082       .  S
C205       C2239   1.484       .  S
C206       C2143   1.491       .  S
C207       C1951   1.491       .  S
C208       C1855   1.490       .  S
C219        C220   1.544       .  S
C219        C225   1.534   1_655  S
C219        C223   1.541       .  S
C219       C1567   1.535       .  S
C220        H227   1.078       .  S
C220        C221   1.370   1_655  D
C221        C222   1.541       .  S
C221       C1615   1.495       .  S
C222        C226   1.541       .  S
C222        C224   1.541       .  S
C222        H228   1.107       .  S
C223        H229   1.086       .  S
C223        C224   1.370   1_655  D
C224       C1650   1.490       .  S
C225        H230   1.086       .  S
C225        C226   1.365       .  D
C226       C1591   1.487       .  S
C231        C232   1.541       .  S
C231        C237   1.538       .  S
C231        C235   1.537       .  S
C231       C1482   1.534       .  S
C232        H239   1.080       .  S
C232        C233   1.367       .  D
C233        C234   1.544       .  S
C233       C1519   1.498       .  S
C234        C238   1.544       .  S
C234        C236   1.543       .  S
C234        H240   1.106       .  S
C235        H241   1.086       .  S
C235        C236   1.369       .  D
C236       C1543   1.493       .  S
C237        H242   1.086       .  S
C237        C238   1.368       .  D
C238       C1506   1.491       .  S
C243        C244   1.536   1_545  S
C243        C249   1.540   1_545  S
C243        C247   1.544   1_545  S
C243       C1386   1.532       .  S
C244        H251   1.084   1_565  S
C244        C245   1.370       .  D
C245        C246   1.547       .  S
C245       C1423   1.502       .  S
C246        C250   1.536       .  S
C246        C248   1.539       .  S
C246        H252   1.106       .  S
C247        H253   1.080   1_565  S
C247        C248   1.366       .  D
C248       C1458   1.486       .  S
C249        H254   1.086       .  S
C249        C250   1.367       .  D
C250       C1410   1.487       .  S
O255       Cr273   1.987       .  S
O255        C263   1.263       .  A
O256       Cr273   2.011       .  S
O256        C257   1.267       .  A
C257        O258   1.263       .  A
C257       C1303   1.486       .  S
O258       Cr274   1.981       .  S
O259       Cr274   2.004       .  S
O259        C260   1.265       .  A
C260        O261   1.263       .  A
C260       C1338   1.490       .  S
O261       Cr275   1.994       .  S
O262       Cr275   2.000       .  S
O262        C263   1.265       .  A
C263       C1351   1.485       .  S
O264       Cr273   2.005       .  S
O264        C272   1.266       .  A
O265       Cr273   1.990       .  S
O265        C266   1.262       .  A
C266        O267   1.264       .  A
C266       C1399   1.486       .  S
O267       Cr274   1.999       .  S
O268       Cr274   1.988       .  S
O268        C269   1.262       .  A
C269        O270   1.266       .  A
C269       C1495   1.486       .  S
O270       Cr275   2.005       .  S
O271       Cr275   1.984       .  S
O271        C272   1.262       .  A
C272       C1602   1.484       .  S
Cr273       O276   1.779       .  S
Cr274       O276   1.773       .  S
Cr275       O276   1.776       .  S
C277        C278   1.541       .  S
C277        C283   1.537       .  S
C277        C281   1.545       .  S
C277       C1722   1.531       .  S
C278        H285   1.085       .  S
C278        C279   1.371       .  D
C279        C280   1.544       .  S
C279       C1279   1.499       .  S
C280        C284   1.539       .  S
C280        C282   1.540       .  S
C280        H286   1.107       .  S
C281        H287   1.081       .  S
C281        C282   1.367       .  D
C282       C1266   1.488       .  S
C283        H288   1.086       .  S
C283        C284   1.363       .  D
C284       C1231   1.483       .  S
C289        C290   1.545       .  S
C289        C295   1.541       .  S
C289        C293   1.539       .  S
C289       C1698   1.536       .  S
C290        H297   1.081       .  S
C290        C291   1.364       .  D
C291        C292   1.538       .  S
C291       C1183   1.486       .  S
C292        C296   1.541       .  S
C292        C294   1.541       .  S
C292        H298   1.105       .  S
C293        H299   1.085       .  S
C293        C294   1.372       .  D
C294       C1207   1.496       .  S
C295        H300   1.085       .  S
C295        C296   1.369       .  D
C296       C1170   1.495       .  S
C301        C302   1.548       .  S
C301        C307   1.538       .  S
C301        C305   1.536       .  S
C301       C1663   1.528       .  S
C302        H309   1.082       .  S
C302        C303   1.367       .  D
C303        C304   1.537       .  S
C303       C1146   1.483       .  S
C304        C308   1.538       .  S
C304        C306   1.540       .  S
C304        H310   1.109       .  S
C305        H311   1.086       .  S
C305        C306   1.366       .  D
C306       C1111   1.487       .  S
C307        H312   1.086       .  S
C307        C308   1.366       .  D
C308       C1098   1.486       .  S
O313       Cr331   1.984   1_655  S
O313        C321   1.263       .  A
O314       Cr331   2.010   1_545  S
O314        C315   1.267       .  A
C315        O316   1.261       .  A
C315       C1914   1.489       .  S
O316       Cr332   1.984       .  S
O317       Cr332   2.018   1_655  S
O317        C318   1.269       .  A
C318        O319   1.262   1_545  A
C318       C1746   1.487       .  S
O319       Cr333   1.976       .  S
O320       Cr333   2.005       .  S
O320        C321   1.267       .  A
C321       C1807   1.483       .  S
O322       Cr331   2.008   1_655  S
O322        C330   1.266       .  A
O323       Cr331   1.974       .  S
O323        C324   1.260   1_565  A
C324        O325   1.267       .  A
C324       C1242   1.481       .  S
O325       Cr332   2.009       .  S
O326       Cr332   1.979       .  S
O326        C327   1.259   1_455  A
C327        O328   1.265   1_545  A
C327       C1087   1.483       .  S
O328       Cr333   2.006       .  S
O329       Cr333   1.989       .  S
O329        C330   1.263       .  A
C330       C1159   1.488       .  S
Cr331       O334   1.774   1_455  S
Cr332       O334   1.777   1_445  S
Cr333       O334   1.775       .  S
N335        C340   1.354       .  A
N335        C339   1.354       .  A
N335        H367   1.038       .  S
N336        C343   1.353       .  A
N336        C344   1.352       .  A
N337        C342   1.356       .  A
N337        C341   1.355       .  A
N337        H368   1.039       .  S
N338        C345   1.352       .  A
N338        C346   1.353       .  A
C339        C347   1.388       .  A
C339        C355   1.416       .  A
C340        C356   1.416       .  A
C340        C348   1.387       .  A
C341        C349   1.387       .  A
C341        C358   1.419       .  A
C342        C357   1.418       .  A
C342        C350   1.386       .  A
C343        C355   1.414       .  A
C343        C351   1.385       .  A
C344        C358   1.417       .  A
C344        C352   1.387       .  A
C345        C353   1.386       .  A
C345        C356   1.415       .  A
C346        C354   1.386       .  A
C346        C357   1.414       .  A
C347        C348   1.374       .  A
C347        H359   1.082       .  S
C348        H360   1.082       .  S
C349        C350   1.374       .  A
C349        H361   1.082       .  S
C350        H362   1.082       .  S
C351        C352   1.374       .  A
C351        H363   1.082       .  S
C352        H364   1.082       .  S
C353        C354   1.373       .  A
C353        H365   1.082       .  S
C354        H366   1.082       .  S
C355       C1530   1.486       .  S
C356       C1639   1.487       .  S
C357       C1122   1.494       .  S
C358       C1290   1.492       .  S
N369        C374   1.354       .  A
N369        C373   1.355       .  A
N369        H401   1.038       .  S
N370        C377   1.353       .  A
N370        C378   1.351       .  A
N371        C376   1.355       .  A
N371        C375   1.352       .  A
N371        H402   1.039       .  S
N372        C379   1.351       .  A
N372        C380   1.353       .  A
C373        C381   1.387       .  A
C373        C389   1.418       .  A
C374        C390   1.417       .  A
C374        C382   1.387       .  A
C375        C383   1.387       .  A
C375        C392   1.414       .  A
C376        C391   1.416       .  A
C376        C384   1.387       .  A
C377        C389   1.415       .  A
C377        C385   1.386       .  A
C378        C392   1.414       .  A
C378        C386   1.387       .  A
C379        C387   1.386       .  A
C379        C390   1.414       .  A
C380        C388   1.386       .  A
C380        C391   1.414       .  A
C381        C382   1.374       .  A
C381        H393   1.082       .  S
C382        H394   1.082       .  S
C383        C384   1.375       .  A
C383        H395   1.082       .  S
C384        H396   1.082       .  S
C385        C386   1.373       .  A
C385        H397   1.082       .  S
C386        H398   1.082       .  S
C387        C388   1.373       .  A
C387        H399   1.082       .  S
C388        H400   1.082       .  S
C389       C1554   1.489       .  S
C390       C1434   1.486       .  S
C391       C1135   1.491       .  S
C392       C1218   1.482       .  S
N403        C408   1.353       .  A
N403        C407   1.352       .  A
N403        H435   1.038       .  S
N404        C411   1.349       .  A
N404        C412   1.351       .  A
N405        C410   1.352       .  A
N405        C409   1.354       .  A
N405        H436   1.039       .  S
N406        C413   1.351       .  A
N406        C414   1.351       .  A
C407        C415   1.386       .  A
C407        C423   1.413       .  A
C408        C424   1.415       .  A
C408        C416   1.388       .  A
C409        C417   1.387       .  A
C409        C426   1.415       .  A
C410        C425   1.413       .  A
C410        C418   1.386       .  A
C411        C423   1.411       .  A
C411        C419   1.387       .  A
C412        C426   1.410       .  A
C412        C420   1.385       .  A
C413        C421   1.386       .  A
C413        C424   1.413       .  A
C414        C422   1.386       .  A
C414        C425   1.413       .  A
C415        C416   1.374       .  A
C415        H427   1.082       .  S
C416        H428   1.082       .  S
C417        C418   1.374       .  A
C417        H429   1.082       .  S
C418        H430   1.082       .  S
C419        C420   1.373       .  A
C419        H431   1.082       .  S
C420        H432   1.082       .  S
C421        C422   1.374       .  A
C421        H433   1.082       .  S
C422        H434   1.082       .  S
C423       C1447   1.479       .  S
C424       C1626   1.482       .  S
C425       C1194   1.485       .  S
C426       C1255   1.488       .  S
C437        C438   1.547       .  S
C437        C443   1.541       .  S
C437        C441   1.541       .  S
C437       C2023   1.533       .  S
C438        H445   1.081       .  S
C438        C439   1.369       .  D
C439        C440   1.536       .  S
C439       C1039   1.486       .  S
C440        C444   1.533       .  S
C440        C442   1.538       .  S
C440        H446   1.108       .  S
C441        H447   1.086       .  S
C441        C442   1.368       .  D
C442       C1074   1.488       .  S
C443        H448   1.086       .  S
C443        C444   1.364       .  D
C444       C1015   1.480       .  S
C449        C450   1.539       .  S
C449        C455   1.539       .  S
C449        C453   1.548       .  S
C449       C2058   1.536       .  S
C450        H457   1.086       .  S
C450        C451   1.370       .  D
C451        C452   1.542       .  S
C451        C991   1.489       .  S
C452        C456   1.540       .  S
C452        C454   1.536       .  S
C452        H458   1.108       .  S
C453        H459   1.081       .  S
C453        C454   1.366       .  D
C454        C978   1.488       .  S
C455        H460   1.086       .  S
C455        C456   1.366       .  D
C456        C943   1.490       .  S
C461        C462   1.548       .  S
C461        C467   1.533       .  S
C461        C465   1.538       .  S
C461       C2082   1.532       .  S
C462        H469   1.082       .  S
C462        C463   1.373       .  D
C463        C464   1.542       .  S
C463        C895   1.490       .  S
C464        C468   1.542       .  S
C464        C466   1.540       .  S
C464        H470   1.108       .  S
C465        H471   1.086       .  S
C465        C466   1.367       .  D
C466        C919   1.487       .  S
C467        H472   1.086       .  S
C467        C468   1.365       .  D
C468        C871   1.493       .  S
O473       Cr491   1.996   1_565  S
O473        C481   1.264       .  A
O474       Cr491   1.983   1_455  S
O474        C475   1.262       .  A
C475        O476   1.267       .  A
C475       C2106   1.485       .  S
O476       Cr492   2.008       .  S
O477       Cr492   1.980   1_565  S
O477        C478   1.261       .  A
C478        O479   1.267       .  A
C478       C2298   1.482       .  S
O479       Cr493   2.006   1_455  S
O480       Cr493   1.988       .  S
O480        C481   1.262       .  A
C481       C2202   1.483       .  S
O482       Cr491   1.982   1_565  S
O482        C490   1.262       .  A
O483       Cr491   1.999   1_455  S
O483        C484   1.264       .  A
C484        O485   1.261       .  A
C484        C954   1.482       .  S
O485       Cr492   1.987       .  S
O486       Cr492   2.004   1_565  S
O486        C487   1.265       .  A
C487        O488   1.262   1_455  A
C487        C882   1.484       .  S
O488       Cr493   1.983       .  S
O489       Cr493   2.008       .  S
O489        C490   1.267       .  A
C490       C1026   1.485       .  S
Cr491       O494   1.772   1_645  S
Cr492       O494   1.775   1_545  S
Cr493       O494   1.774   1_655  S
C495        C496   1.546       .  S
C495        C501   1.539   1_565  S
C495        C499   1.538       .  S
C495       C1314   1.535       .  S
C496        H503   1.079       .  S
C496        C497   1.370   1_565  D
C497        C498   1.542       .  S
C497        C834   1.496       .  S
C498        C502   1.540       .  S
C498        C500   1.541       .  S
C498        H504   1.107       .  S
C499        H505   1.086       .  S
C499        C500   1.368   1_565  D
C500        C858   1.488       .  S
C501        H506   1.086   1_545  S
C501        C502   1.366       .  D
C502        C799   1.490       .  S
C507        C508   1.544   1_455  S
C507        C513   1.537   1_455  S
C507        C511   1.540       .  S
C507       C1362   1.531       .  S
C508        H515   1.081   1_655  S
C508        C509   1.367       .  D
C509        C510   1.539       .  S
C509        C762   1.487       .  S
C510        C514   1.540       .  S
C510        C512   1.538       .  S
C510        H516   1.108       .  S
C511        H517   1.086       .  S
C511        C512   1.367   1_455  D
C512        C775   1.483       .  S
C513        H518   1.086       .  S
C513        C514   1.368       .  D
C514        C738   1.492       .  S
C519        C520   1.545       .  S
C519        C525   1.541       .  S
C519        C523   1.539       .  S
C519       C1327   1.536       .  S
C520        H527   1.082       .  S
C520        C521   1.364       .  D
C521        C522   1.532       .  S
C521        C714   1.472       .  S
C522        C526   1.539       .  S
C522        C524   1.545       .  S
C522        H528   1.109       .  S
C523        H529   1.085       .  S
C523        C524   1.371       .  D
C524        C679   1.496       .  S
C525        H530   1.086       .  S
C525        C526   1.368       .  D
C526        C655   1.491       .  S
O531       Cr549   1.988       .  S
O531        C539   1.262       .  A
O532       Cr549   2.005       .  S
O532        C533   1.266       .  A
C533        O534   1.263       .  A
C533       C1578   1.488       .  S
O534       Cr550   1.989       .  S
O535       Cr550   1.997       .  S
O535        C536   1.263       .  A
C536        O537   1.264       .  A
C536       C1471   1.485       .  S
O537       Cr551   1.992       .  S
O538       Cr551   1.997       .  S
O538        C539   1.264       .  A
C539       C1375   1.484       .  S
O540       Cr549   2.011       .  S
O540        C548   1.267       .  A
O541       Cr549   1.985       .  S
O541        C542   1.262       .  A
C542        O543   1.263       .  A
C542        C727   1.477       .  S
O543       Cr550   1.996       .  S
O544       Cr550   1.991       .  S
O544        C545   1.263       .  A
C545        O546   1.264       .  A
C545        C666   1.486       .  S
O546       Cr551   1.998       .  S
O547       Cr551   1.989       .  S
O547        C548   1.263       .  A
C548        C810   1.492       .  S
Cr549       O552   1.782       .  S
Cr550       O552   1.780       .  S
Cr551       O552   1.778       .  S
N553        C558   1.353       .  A
N553        C557   1.354       .  A
N553        H585   1.042       .  S
N554        C561   1.351       .  A
N554        C562   1.350       .  A
N555        C560   1.354       .  A
N555        C559   1.352       .  A
N555        H586   1.045       .  S
N556        C563   1.351       .  A
N556        C564   1.353       .  A
C557        C565   1.387       .  A
C557        C573   1.415       .  A
C558        C574   1.416       .  A
C558        C566   1.388       .  A
C559        C567   1.388       .  A
C559        C576   1.415       .  A
C560        C575   1.415       .  A
C560        C568   1.386       .  A
C561        C573   1.411       .  A
C561        C569   1.385       .  A
C562        C576   1.412       .  A
C562        C570   1.387       .  A
C563        C571   1.386       .  A
C563        C574   1.414       .  A
C564        C572   1.386       .  A
C564        C575   1.414       .  A
C565        C566   1.375       .  A
C565        H577   1.082       .  S
C566        H578   1.082       .  S
C567        C568   1.375       .  A
C567        H579   1.082       .  S
C568        H580   1.082       .  S
C569        C570   1.374       .  A
C569        H581   1.082       .  S
C570        H582   1.082       .  S
C571        C572   1.375       .  A
C571        H583   1.082       .  S
C572        H584   1.082       .  S
C573        C690   1.487       .  S
C574        C751   1.487       .  S
C575        C906   1.495       .  S
C576       C1063   1.487       .  S
N587        C592   1.353       .  A
N587        C591   1.353       .  A
N587        H619   1.037       .  S
N588        C595   1.352       .  A
N588        C596   1.352       .  A
N589        C594   1.353       .  A
N589        C593   1.353       .  A
N589        H620   1.039       .  S
N590        C597   1.351       .  A
N590        C598   1.351       .  A
C591        C599   1.389       .  A
C591        C607   1.417       .  A
C592        C608   1.415       .  A
C592        C600   1.386       .  A
C593        C601   1.386       .  A
C593        C610   1.415       .  A
C594        C609   1.416       .  A
C594        C602   1.388       .  A
C595        C607   1.415       .  A
C595        C603   1.387       .  A
C596        C610   1.415       .  A
C596        C604   1.386       .  A
C597        C605   1.385       .  A
C597        C608   1.411       .  A
C598        C606   1.387       .  A
C598        C609   1.414       .  A
C599        C600   1.373       .  A
C599        H611   1.081       .  S
C600        H612   1.082       .  S
C601        C602   1.375       .  A
C601        H613   1.082       .  S
C602        H614   1.082       .  S
C603        C604   1.372       .  A
C603        H615   1.082       .  S
C604        H616   1.082       .  S
C605        C606   1.372       .  A
C605        H617   1.082       .  S
C606        H618   1.082       .  S
C607        C703   1.483       .  S
C608        C847   1.485       .  S
C609        C930   1.488       .  S
C610       C1002   1.490       .  S
N621        C626   1.353       .  A
N621        C625   1.353       .  A
N621        H653   1.038       .  S
N622        C629   1.351       .  A
N622        C630   1.352       .  A
N623        C628   1.353       .  A
N623        C627   1.355       .  A
N623        H654   1.038       .  S
N624        C631   1.353       .  A
N624        C632   1.352       .  A
C625        C633   1.388       .  A
C625        C641   1.416       .  A
C626        C642   1.415       .  A
C626        C634   1.386       .  A
C627        C635   1.387       .  A
C627        C644   1.418       .  A
C628        C643   1.416       .  A
C628        C636   1.387       .  A
C629        C641   1.414       .  A
C629        C637   1.386       .  A
C630        C644   1.415       .  A
C630        C638   1.386       .  A
C631        C639   1.385       .  A
C631        C642   1.414       .  A
C632        C640   1.387       .  A
C632        C643   1.415       .  A
C633        C634   1.375       .  A
C633        H645   1.082       .  S
C634        H646   1.082       .  S
C635        C636   1.375       .  A
C635        H647   1.082       .  S
C636        H648   1.081       .  S
C637        C638   1.372       .  A
C637        H649   1.082       .  S
C638        H650   1.082       .  S
C639        C640   1.372       .  A
C639        H651   1.082       .  S
C640        H652   1.082       .  S
C641        C786   1.487       .  S
C642        C823   1.488       .  S
C643       C1050   1.484       .  S
C644        C967   1.494       .  S
C655        C656   1.404       .  A
C655        C660   1.405       .  A
C656        C657   1.401       .  A
C656        H669   1.080       .  S
C657        C658   1.405       .  A
C657        H670   1.083       .  S
C658        C661   1.494       .  S
C658        C659   1.409       .  A
C659        C660   1.399       .  A
C659        H671   1.081       .  S
C660        H672   1.083       .  S
C661        H673   1.084       .  S
C661        C662   1.349       .  D
C662        H674   1.085       .  S
C662        C663   1.493       .  S
C663        C664   1.403       .  A
C663        C668   1.411       .  A
C664        C665   1.395       .  A
C664        H675   1.084       .  S
C665        C666   1.406       .  A
C665        H676   1.083       .  S
C666        C667   1.406       .  A
C667        C668   1.405       .  A
C667        H677   1.083       .  S
C668        H678   1.080       .  S
C679        C680   1.409       .  A
C679        C684   1.405       .  A
C680        C681   1.401       .  A
C680        H693   1.082       .  S
C681        C682   1.403       .  A
C681        H694   1.083       .  S
C682        C685   1.490       .  S
C682        C683   1.407       .  A
C683        C684   1.398       .  A
C683        H695   1.081       .  S
C684        H696   1.079       .  S
C685        H697   1.084       .  S
C685        C686   1.349       .  D
C686        H698   1.085       .  S
C686        C687   1.490       .  S
C687        C688   1.406       .  A
C687        C692   1.410       .  A
C688        C689   1.397       .  A
C688        H699   1.083       .  S
C689        C690   1.401       .  A
C689        H700   1.083       .  S
C690        C691   1.403       .  A
C691        C692   1.401       .  A
C691        H701   1.083       .  S
C692        H702   1.080       .  S
C703        C704   1.402       .  A
C703        C708   1.402       .  A
C704        C705   1.398       .  A
C704        H717   1.083       .  S
C705        C706   1.403       .  A
C705        H718   1.083       .  S
C706        C709   1.480       .  S
C706        C707   1.406       .  A
C707        C708   1.397       .  A
C707        H719   1.082       .  S
C708        H720   1.083       .  S
C709        H721   1.086       .  S
C709        C710   1.345       .  D
C710        H722   1.087       .  S
C710        C711   1.481       .  S
C711        C712   1.404       .  A
C711        C716   1.407       .  A
C712        C713   1.399       .  A
C712        H723   1.083       .  S
C713        C714   1.401       .  A
C713        H724   1.083       .  S
C714        C715   1.401       .  A
C715        C716   1.397       .  A
C715        H725   1.083       .  S
C716        H726   1.082       .  S
C727        C728   1.405       .  A
C727        C732   1.404       .  A
C728        C729   1.397       .  A
C728        H741   1.083       .  S
C729        C730   1.403       .  A
C729        H742   1.083       .  S
C730        C733   1.486       .  S
C730        C731   1.409       .  A
C731        C732   1.401       .  A
C731        H743   1.082       .  S
C732        H744   1.083       .  S
C733        H745   1.086       .  S
C733        C734   1.346       .  D
C734        H746   1.086       .  S
C734        C735   1.485       .  S
C735        C736   1.401       .  A
C735        C740   1.406       .  A
C736        C737   1.397       .  A
C736        H747   1.083       .  S
C737        C738   1.408       .  A
C737        H748   1.082       .  S
C738        C739   1.406       .  A
C739        C740   1.400       .  A
C739        H749   1.080       .  S
C740        H750   1.082       .  S
C751        C752   1.402       .  A
C751        C756   1.403       .  A
C752        C753   1.398       .  A
C752        H765   1.083       .  S
C753        C754   1.405       .  A
C753        H766   1.083       .  S
C754        C757   1.488       .  S
C754        C755   1.409       .  A
C755        C756   1.399       .  A
C755        H767   1.081       .  S
C756        H768   1.083       .  S
C757        H769   1.084       .  S
C757        C758   1.349       .  D
C758        H770   1.085       .  S
C758        C759   1.490       .  S
C759        C760   1.405       .  A
C759        C764   1.408       .  A
C760        C761   1.399       .  A
C760        H771   1.083       .  S
C761        C762   1.403       .  A
C761        H772   1.081       .  S
C762        C763   1.406       .  A
C763        C764   1.398       .  A
C763        H773   1.083       .  S
C764        H774   1.081       .  S
C775        C776   1.403       .  A
C775        C780   1.405       .  A
C776        C777   1.395       .  A
C776        H789   1.083       .  S
C777        C778   1.403       .  A
C777        H790   1.083       .  S
C778        C781   1.487       .  S
C778        C779   1.409       .  A
C779        C780   1.400       .  A
C779        H791   1.081       .  S
C780        H792   1.083   1_655  S
C781        H793   1.085       .  S
C781        C782   1.347       .  D
C782        H794   1.084       .  S
C782        C783   1.487       .  S
C783        C784   1.404       .  A
C783        C788   1.409       .  A
C784        C785   1.399       .  A
C784        H795   1.083       .  S
C785        C786   1.404       .  A
C785        H796   1.083       .  S
C786        C787   1.402       .  A
C787        C788   1.396       .  A
C787        H797   1.083       .  S
C788        H798   1.081       .  S
C799        C800   1.403       .  A
C799        C804   1.406       .  A
C800        C801   1.401       .  A
C800        H813   1.079       .  S
C801        C802   1.405       .  A
C801        H814   1.083       .  S
C802        C805   1.494       .  S
C802        C803   1.409       .  A
C803        C804   1.402       .  A
C803        H815   1.082       .  S
C804        H816   1.083       .  S
C805        H817   1.086       .  S
C805        C806   1.351       .  D
C806        H818   1.085       .  S
C806        C807   1.493       .  S
C807        C808   1.405       .  A
C807        C812   1.407       .  A
C808        C809   1.403       .  A
C808        H819   1.083       .  S
C809        C810   1.407       .  A
C809        H820   1.083       .  S
C810        C811   1.408       .  A
C811        C812   1.402       .  A
C811        H821   1.083       .  S
C812        H822   1.082       .  S
C823        C824   1.401       .  A
C823        C828   1.403       .  A
C824        C825   1.397       .  A
C824        H837   1.083       .  S
C825        C826   1.405       .  A
C825        H838   1.083       .  S
C826        C829   1.491       .  S
C826        C827   1.411       .  A
C827        C828   1.401       .  A
C827        H839   1.080       .  S
C828        H840   1.083       .  S
C829        H841   1.084       .  S
C829        C830   1.349       .  D
C830        H842   1.084       .  S
C830        C831   1.492       .  S
C831        C832   1.403       .  A
C831        C836   1.408       .  A
C832        C833   1.399       .  A
C832        H843   1.083   1_545  S
C833        C834   1.409       .  A
C833        H844   1.082   1_545  S
C834        C835   1.405       .  A
C835        C836   1.398       .  A
C835        H845   1.078       .  S
C836        H846   1.081       .  S
C847        C848   1.402       .  A
C847        C852   1.402       .  A
C848        C849   1.397       .  A
C848        H861   1.083       .  S
C849        C850   1.404       .  A
C849        H862   1.083       .  S
C850        C853   1.487       .  S
C850        C851   1.409       .  A
C851        C852   1.399       .  A
C851        H863   1.081       .  S
C852        H864   1.083       .  S
C853        H865   1.085       .  S
C853        C854   1.348       .  D
C854        H866   1.085       .  S
C854        C855   1.488       .  S
C855        C856   1.404       .  A
C855        C860   1.408       .  A
C856        C857   1.399       .  A
C856        H867   1.083   1_545  S
C857        C858   1.406       .  A
C857        H868   1.083   1_545  S
C858        C859   1.404       .  A
C859        C860   1.398       .  A
C859        H869   1.082       .  S
C860        H870   1.081       .  S
C871        C872   1.407       .  A
C871        C876   1.406       .  A
C872        C873   1.394       .  A
C872        H885   1.082       .  S
C873        C874   1.402       .  A
C873        H886   1.084       .  S
C874        C877   1.490       .  S
C874        C875   1.410       .  A
C875        C876   1.404       .  A
C875        H887   1.081       .  S
C876        H888   1.082       .  S
C877        H889   1.085       .  S
C877        C878   1.349       .  D
C878        H890   1.085       .  S
C878        C879   1.492       .  S
C879        C880   1.405       .  A
C879        C884   1.408       .  A
C880        C881   1.401       .  A
C880        H891   1.083       .  S
C881        C882   1.406       .  A
C881        H892   1.083   1_455  S
C882        C883   1.406       .  A
C883        C884   1.398       .  A
C883        H893   1.083       .  S
C884        H894   1.081       .  S
C895        C896   1.405       .  A
C895        C900   1.406       .  A
C896        C897   1.400       .  A
C896        H909   1.083       .  S
C897        C898   1.404       .  A
C897        H910   1.083       .  S
C898        C901   1.493       .  S
C898        C899   1.409       .  A
C899        C900   1.403       .  A
C899        H911   1.082       .  S
C900        H912   1.083       .  S
C901        H913   1.085       .  S
C901        C902   1.349       .  D
C902        H914   1.086   1_455  S
C902        C903   1.494   1_455  S
C903        C904   1.405       .  A
C903        C908   1.410       .  A
C904        C905   1.399       .  A
C904        H915   1.083       .  S
C905        C906   1.404       .  A
C905        H916   1.083       .  S
C906        C907   1.405       .  A
C907        C908   1.403       .  A
C907        H917   1.083       .  S
C908        H918   1.081   1_655  S
C919        C920   1.405       .  A
C919        C924   1.406       .  A
C920        C921   1.398       .  A
C920        H933   1.082       .  S
C921        C922   1.403       .  A
C921        H934   1.083       .  S
C922        C925   1.485       .  S
C922        C923   1.406       .  A
C923        C924   1.398       .  A
C923        H935   1.082       .  S
C924        H936   1.082       .  S
C925        H937   1.086   1_565  S
C925        C926   1.347       .  D
C926        H938   1.086       .  S
C926        C927   1.484   1_565  S
C927        C928   1.404       .  A
C927        C932   1.407       .  A
C928        C929   1.399       .  A
C928        H939   1.083   1_545  S
C929        C930   1.404       .  A
C929        H940   1.083       .  S
C930        C931   1.403       .  A
C931        C932   1.396       .  A
C931        H941   1.083       .  S
C932        H942   1.082       .  S
C943        C944   1.407       .  A
C943        C948   1.403       .  A
C944        C945   1.402       .  A
C944        H957   1.083       .  S
C945        C946   1.404       .  A
C945        H958   1.083       .  S
C946        C949   1.488       .  S
C946        C947   1.406       .  A
C947        C948   1.397       .  A
C947        H959   1.082       .  S
C948        H960   1.077       .  S
C949        H961   1.086       .  S
C949        C950   1.347       .  D
C950        H962   1.086       .  S
C950        C951   1.485       .  S
C951        C952   1.402       .  A
C951        C956   1.408       .  A
C952        C953   1.395       .  A
C952        H963   1.084       .  S
C953        C954   1.405       .  A
C953        H964   1.083       .  S
C954        C955   1.406       .  A
C955        C956   1.404       .  A
C955        H965   1.083       .  S
C956        H966   1.082       .  S
C967        C968   1.404       .  A
C967        C972   1.405       .  A
C968        C969   1.399   1_655  A
C968        H981   1.083       .  S
C969        C970   1.404       .  A
C969        H982   1.083       .  S
C970        C973   1.489       .  S
C970        C971   1.408   1_455  A
C971        C972   1.400       .  A
C971        H983   1.082       .  S
C972        H984   1.083       .  S
C973        H985   1.086       .  S
C973        C974   1.348       .  D
C974        H986   1.086       .  S
C974        C975   1.489       .  S
C975        C976   1.403       .  A
C975        C980   1.408       .  A
C976        C977   1.399       .  A
C976        H987   1.083       .  S
C977        C978   1.402       .  A
C977        H988   1.077       .  S
C978        C979   1.406       .  A
C979        C980   1.400       .  A
C979        H989   1.083       .  S
C980        H990   1.082       .  S
C991        C992   1.405       .  A
C991        C996   1.407       .  A
C992        C993   1.396       .  A
C992       H1005   1.082       .  S
C993        C994   1.402       .  A
C993       H1006   1.083       .  S
C994        C997   1.485       .  S
C994        C995   1.408       .  A
C995        C996   1.401       .  A
C995       H1007   1.082       .  S
C996       H1008   1.082       .  S
C997       H1009   1.086       .  S
C997        C998   1.346       .  D
C998       H1010   1.086       .  S
C998        C999   1.486       .  S
C999       C1000   1.403       .  A
C999       C1004   1.409       .  A
C1000      C1001   1.397       .  A
C1000      H1011   1.083       .  S
C1001      C1002   1.403       .  A
C1001      H1012   1.083       .  S
C1002      C1003   1.404       .  A
C1003      C1004   1.400       .  A
C1003      H1013   1.083       .  S
C1004      H1014   1.082       .  S
C1015      C1016   1.401       .  A
C1015      C1020   1.402       .  A
C1016      C1017   1.398       .  A
C1016      H1029   1.080       .  S
C1017      C1018   1.404       .  A
C1017      H1030   1.083       .  S
C1018      C1021   1.488       .  S
C1018      C1019   1.409       .  A
C1019      C1020   1.400       .  A
C1019      H1031   1.082       .  S
C1020      H1032   1.083       .  S
C1021      H1033   1.085       .  S
C1021      C1022   1.349       .  D
C1022      H1034   1.086       .  S
C1022      C1023   1.490       .  S
C1023      C1024   1.405       .  A
C1023      C1028   1.407       .  A
C1024      C1025   1.401       .  A
C1024      H1035   1.083       .  S
C1025      C1026   1.406       .  A
C1025      H1036   1.083   1_565  S
C1026      C1027   1.406       .  A
C1027      C1028   1.398       .  A
C1027      H1037   1.083       .  S
C1028      H1038   1.081       .  S
C1039      C1040   1.405       .  A
C1039      C1044   1.405       .  A
C1040      C1041   1.398       .  A
C1040      H1053   1.083       .  S
C1041      C1042   1.402       .  A
C1041      H1054   1.083       .  S
C1042      C1045   1.483       .  S
C1042      C1043   1.406       .  A
C1043      C1044   1.397       .  A
C1043      H1055   1.082       .  S
C1044      H1056   1.083       .  S
C1045      H1057   1.086       .  S
C1045      C1046   1.345       .  D
C1046      H1058   1.086       .  S
C1046      C1047   1.481   1_565  S
C1047      C1048   1.402       .  A
C1047      C1052   1.408       .  A
C1048      C1049   1.396       .  A
C1048      H1059   1.083       .  S
C1049      C1050   1.402       .  A
C1049      H1060   1.083       .  S
C1050      C1051   1.402       .  A
C1051      C1052   1.399       .  A
C1051      H1061   1.083       .  S
C1052      H1062   1.082   1_545  S
C1063      C1064   1.403       .  A
C1063      C1068   1.404       .  A
C1064      C1065   1.395       .  A
C1064      H1077   1.083       .  S
C1065      C1066   1.403       .  A
C1065      H1078   1.083       .  S
C1066      C1069   1.483       .  S
C1066      C1067   1.408       .  A
C1067      C1068   1.398       .  A
C1067      H1079   1.081       .  S
C1068      H1080   1.083       .  S
C1069      H1081   1.086       .  S
C1069      C1070   1.347       .  D
C1070      H1082   1.085       .  S
C1070      C1071   1.484       .  S
C1071      C1072   1.403       .  A
C1071      C1076   1.405       .  A
C1072      C1073   1.401       .  A
C1072      H1083   1.083       .  S
C1073      C1074   1.407       .  A
C1073      H1084   1.082       .  S
C1074      C1075   1.404       .  A
C1075      C1076   1.393       .  A
C1075      H1085   1.078       .  S
C1076      H1086   1.082       .  S
C1087      C1088   1.406       .  A
C1087      C1092   1.405       .  A
C1088      C1089   1.400       .  A
C1088      H1101   1.083   1_655  S
C1089      C1090   1.405       .  A
C1089      H1102   1.083       .  S
C1090      C1093   1.492       .  S
C1090      C1091   1.409       .  A
C1091      C1092   1.398       .  A
C1091      H1103   1.080       .  S
C1092      H1104   1.083       .  S
C1093      H1105   1.083       .  S
C1093      C1094   1.350       .  D
C1094      H1106   1.083       .  S
C1094      C1095   1.491       .  S
C1095      C1096   1.405       .  A
C1095      C1100   1.410       .  A
C1096      C1097   1.396       .  A
C1096      H1107   1.083       .  S
C1097      C1098   1.404       .  A
C1097      H1108   1.083       .  S
C1098      C1099   1.404       .  A
C1099      C1100   1.400       .  A
C1099      H1109   1.083       .  S
C1100      H1110   1.080       .  S
C1111      C1112   1.405       .  A
C1111      C1116   1.403       .  A
C1112      C1113   1.400       .  A
C1112      H1125   1.083       .  S
C1113      C1114   1.405       .  A
C1113      H1126   1.083       .  S
C1114      C1117   1.495       .  S
C1114      C1115   1.411       .  A
C1115      C1116   1.400       .  A
C1115      H1127   1.080       .  S
C1116      H1128   1.083       .  S
C1117      H1129   1.084   1_655  S
C1117      C1118   1.350       .  D
C1118      H1130   1.083       .  S
C1118      C1119   1.493   1_655  S
C1119      C1120   1.405       .  A
C1119      C1124   1.411       .  A
C1120      C1121   1.398       .  A
C1120      H1131   1.083       .  S
C1121      C1122   1.403       .  A
C1121      H1132   1.083       .  S
C1122      C1123   1.405       .  A
C1123      C1124   1.403       .  A
C1123      H1133   1.083       .  S
C1124      H1134   1.081       .  S
C1135      C1136   1.404       .  A
C1135      C1140   1.403       .  A
C1136      C1137   1.400       .  A
C1136      H1149   1.083       .  S
C1137      C1138   1.405       .  A
C1137      H1150   1.083       .  S
C1138      C1141   1.491   1_565  S
C1138      C1139   1.409       .  A
C1139      C1140   1.399       .  A
C1139      H1151   1.081       .  S
C1140      H1152   1.083       .  S
C1141      H1153   1.084       .  S
C1141      C1142   1.349       .  D
C1142      H1154   1.085       .  S
C1142      C1143   1.491       .  S
C1143      C1144   1.405       .  A
C1143      C1148   1.410       .  A
C1144      C1145   1.397       .  A
C1144      H1155   1.083       .  S
C1145      C1146   1.402       .  A
C1145      H1156   1.083       .  S
C1146      C1147   1.404       .  A
C1147      C1148   1.402       .  A
C1147      H1157   1.083       .  S
C1148      H1158   1.081       .  S
C1159      C1160   1.406       .  A
C1159      C1164   1.407       .  A
C1160      C1161   1.397       .  A
C1160      H1173   1.083       .  S
C1161      C1162   1.403       .  A
C1161      H1174   1.083       .  S
C1162      C1165   1.492       .  S
C1162      C1163   1.410       .  A
C1163      C1164   1.405       .  A
C1163      H1175   1.081       .  S
C1164      H1176   1.083       .  S
C1165      H1177   1.085       .  S
C1165      C1166   1.349       .  D
C1166      H1178   1.085       .  S
C1166      C1167   1.493       .  S
C1167      C1168   1.403       .  A
C1167      C1172   1.409       .  A
C1168      C1169   1.399       .  A
C1168      H1179   1.083       .  S
C1169      C1170   1.407       .  A
C1169      H1180   1.082       .  S
C1170      C1171   1.407       .  A
C1171      C1172   1.401       .  A
C1171      H1181   1.082       .  S
C1172      H1182   1.081       .  S
C1183      C1184   1.403       .  A
C1183      C1188   1.402       .  A
C1184      C1185   1.401       .  A
C1184      H1197   1.083       .  S
C1185      C1186   1.407       .  A
C1185      H1198   1.083       .  S
C1186      C1189   1.493       .  S
C1186      C1187   1.409       .  A
C1187      C1188   1.398       .  A
C1187      H1199   1.080       .  S
C1188      H1200   1.078       .  S
C1189      H1201   1.084       .  S
C1189      C1190   1.350       .  D
C1190      H1202   1.083       .  S
C1190      C1191   1.490   1_655  S
C1191      C1192   1.405       .  A
C1191      C1196   1.410       .  A
C1192      C1193   1.397       .  A
C1192      H1203   1.083       .  S
C1193      C1194   1.402       .  A
C1193      H1204   1.083       .  S
C1194      C1195   1.402       .  A
C1195      C1196   1.400       .  A
C1195      H1205   1.083       .  S
C1196      H1206   1.081       .  S
C1207      C1208   1.407       .  A
C1207      C1212   1.408       .  A
C1208      C1209   1.394       .  A
C1208      H1221   1.076       .  S
C1209      C1210   1.400       .  A
C1209      H1222   1.084       .  S
C1210      C1213   1.487       .  S
C1210      C1211   1.408       .  A
C1211      C1212   1.399       .  A
C1211      H1223   1.080       .  S
C1212      H1224   1.081       .  S
C1213      H1225   1.085       .  S
C1213      C1214   1.346       .  D
C1214      H1226   1.083       .  S
C1214      C1215   1.484       .  S
C1215      C1216   1.404       .  A
C1215      C1220   1.409       .  A
C1216      C1217   1.397       .  A
C1216      H1227   1.083       .  S
C1217      C1218   1.401       .  A
C1217      H1228   1.083       .  S
C1218      C1219   1.401       .  A
C1219      C1220   1.396       .  A
C1219      H1229   1.083       .  S
C1220      H1230   1.081       .  S
C1231      C1232   1.401       .  A
C1231      C1236   1.405       .  A
C1232      C1233   1.395       .  A
C1232      H1245   1.078       .  S
C1233      C1234   1.401       .  A
C1233      H1246   1.083       .  S
C1234      C1237   1.483       .  S
C1234      C1235   1.408       .  A
C1235      C1236   1.401       .  A
C1235      H1247   1.082       .  S
C1236      H1248   1.083       .  S
C1237      H1249   1.086       .  S
C1237      C1238   1.345       .  D
C1238      H1250   1.086       .  S
C1238      C1239   1.485       .  S
C1239      C1240   1.403       .  A
C1239      C1244   1.407       .  A
C1240      C1241   1.399       .  A
C1240      H1251   1.083   1_545  S
C1241      C1242   1.406       .  A
C1241      H1252   1.083   1_545  S
C1242      C1243   1.405       .  A
C1243      C1244   1.397       .  A
C1243      H1253   1.083       .  S
C1244      H1254   1.082       .  S
C1255      C1256   1.404       .  A
C1255      C1260   1.402       .  A
C1256      C1257   1.400       .  A
C1256      H1269   1.083       .  S
C1257      C1258   1.406       .  A
C1257      H1270   1.083       .  S
C1258      C1261   1.490       .  S
C1258      C1259   1.409       .  A
C1259      C1260   1.397       .  A
C1259      H1271   1.081       .  S
C1260      H1272   1.083       .  S
C1261      H1273   1.085       .  S
C1261      C1262   1.349       .  D
C1262      H1274   1.085       .  S
C1262      C1263   1.489   1_565  S
C1263      C1264   1.405       .  A
C1263      C1268   1.408       .  A
C1264      C1265   1.399       .  A
C1264      H1275   1.083       .  S
C1265      C1266   1.403       .  A
C1265      H1276   1.083       .  S
C1266      C1267   1.406       .  A
C1267      C1268   1.400       .  A
C1267      H1277   1.083       .  S
C1268      H1278   1.081       .  S
C1279      C1280   1.406       .  A
C1279      C1284   1.409       .  A
C1280      C1281   1.396       .  A
C1280      H1293   1.076       .  S
C1281      C1282   1.402       .  A
C1281      H1294   1.084       .  S
C1282      C1285   1.493       .  S
C1282      C1283   1.409       .  A
C1283      C1284   1.402       .  A
C1283      H1295   1.080       .  S
C1284      H1296   1.081       .  S
C1285      H1297   1.085       .  S
C1285      C1286   1.349       .  D
C1286      H1298   1.083       .  S
C1286      C1287   1.491       .  S
C1287      C1288   1.405       .  A
C1287      C1292   1.410       .  A
C1288      C1289   1.400       .  A
C1288      H1299   1.083       .  S
C1289      C1290   1.404       .  A
C1289      H1300   1.083       .  S
C1290      C1291   1.404       .  A
C1291      C1292   1.399       .  A
C1291      H1301   1.083       .  S
C1292      H1302   1.081       .  S
C1303      C1304   1.406       .  A
C1303      C1308   1.407       .  A
C1304      C1305   1.400       .  A
C1304      H1317   1.083       .  S
C1305      C1306   1.404       .  A
C1305      H1318   1.083       .  S
C1306      C1309   1.491       .  S
C1306      C1307   1.408       .  A
C1307      C1308   1.400       .  A
C1307      H1319   1.081       .  S
C1308      H1320   1.083       .  S
C1309      H1321   1.084       .  S
C1309      C1310   1.350       .  D
C1310      H1322   1.085       .  S
C1310      C1311   1.492       .  S
C1311      C1312   1.402       .  A
C1311      C1316   1.407       .  A
C1312      C1313   1.399       .  A
C1312      H1323   1.083       .  S
C1313      C1314   1.409       .  A
C1313      H1324   1.083       .  S
C1314      C1315   1.412       .  A
C1315      C1316   1.401       .  A
C1315      H1325   1.076       .  S
C1316      H1326   1.081       .  S
C1327      C1328   1.407       .  A
C1327      C1332   1.413       .  A
C1328      C1329   1.398       .  A
C1328      H1341   1.083       .  S
C1329      C1330   1.404       .  A
C1329      H1342   1.083       .  S
C1330      C1333   1.496       .  S
C1330      C1331   1.408       .  A
C1331      C1332   1.404       .  A
C1331      H1343   1.080       .  S
C1332      H1344   1.077       .  S
C1333      H1345   1.084       .  S
C1333      C1334   1.354       .  D
C1334      H1346   1.083       .  S
C1334      C1335   1.498       .  S
C1335      C1336   1.408       .  A
C1335      C1340   1.408       .  A
C1336      C1337   1.406       .  A
C1336      H1347   1.083       .  S
C1337      C1338   1.407       .  A
C1337      H1348   1.083       .  S
C1338      C1339   1.407       .  A
C1339      C1340   1.398       .  A
C1339      H1349   1.083       .  S
C1340      H1350   1.081       .  S
C1351      C1352   1.406       .  A
C1351      C1356   1.406       .  A
C1352      C1353   1.396       .  A
C1352      H1365   1.083       .  S
C1353      C1354   1.403       .  A
C1353      H1366   1.084       .  S
C1354      C1357   1.491       .  S
C1354      C1355   1.410       .  A
C1355      C1356   1.403       .  A
C1355      H1367   1.081       .  S
C1356      H1368   1.083       .  S
C1357      H1369   1.085       .  S
C1357      C1358   1.348       .  D
C1358      H1370   1.084       .  S
C1358      C1359   1.489       .  S
C1359      C1360   1.401       .  A
C1359      C1364   1.406       .  A
C1360      C1361   1.399       .  A
C1360      H1371   1.084       .  S
C1361      C1362   1.411       .  A
C1361      H1372   1.076       .  S
C1362      C1363   1.409       .  A
C1363      C1364   1.398       .  A
C1363      H1373   1.083       .  S
C1364      H1374   1.082       .  S
C1375      C1376   1.406       .  A
C1375      C1380   1.407       .  A
C1376      C1377   1.395       .  A
C1376      H1389   1.083       .  S
C1377      C1378   1.401       .  A
C1377      H1390   1.084       .  S
C1378      C1381   1.487       .  S
C1378      C1379   1.409       .  A
C1379      C1380   1.403       .  A
C1379      H1391   1.082       .  S
C1380      H1392   1.083       .  S
C1381      H1393   1.085       .  S
C1381      C1382   1.348       .  D
C1382      H1394   1.086       .  S
C1382      C1383   1.489       .  S
C1383      C1384   1.402       .  A
C1383      C1388   1.406       .  A
C1384      C1385   1.399       .  A
C1384      H1395   1.083       .  S
C1385      C1386   1.409       .  A
C1385      H1396   1.083       .  S
C1386      C1387   1.412       .  A
C1387      C1388   1.399       .  A
C1387      H1397   1.077       .  S
C1388      H1398   1.082       .  S
C1399      C1400   1.405       .  A
C1399      C1404   1.407       .  A
C1400      C1401   1.394       .  A
C1400      H1413   1.083       .  S
C1401      C1402   1.403       .  A
C1401      H1414   1.084       .  S
C1402      C1405   1.492       .  S
C1402      C1403   1.411       .  A
C1403      C1404   1.406       .  A
C1403      H1415   1.080       .  S
C1404      H1416   1.083       .  S
C1405      H1417   1.085       .  S
C1405      C1406   1.349       .  D
C1406      H1418   1.084       .  S
C1406      C1407   1.493       .  S
C1407      C1408   1.405       .  A
C1407      C1412   1.410       .  A
C1408      C1409   1.401       .  A
C1408      H1419   1.083       .  S
C1409      C1410   1.406       .  A
C1409      H1420   1.083       .  S
C1410      C1411   1.403       .  A
C1411      C1412   1.398       .  A
C1411      H1421   1.083       .  S
C1412      H1422   1.081       .  S
C1423      C1424   1.406       .  A
C1423      C1428   1.411       .  A
C1424      C1425   1.396       .  A
C1424      H1437   1.074       .  S
C1425      C1426   1.401       .  A
C1425      H1438   1.084       .  S
C1426      C1429   1.490       .  S
C1426      C1427   1.408       .  A
C1427      C1428   1.403       .  A
C1427      H1439   1.081       .  S
C1428      H1440   1.081       .  S
C1429      H1441   1.086       .  S
C1429      C1430   1.348       .  D
C1430      H1442   1.084       .  S
C1430      C1431   1.489       .  S
C1431      C1432   1.405       .  A
C1431      C1436   1.409       .  A
C1432      C1433   1.400       .  A
C1432      H1443   1.083       .  S
C1433      C1434   1.402       .  A
C1433      H1444   1.083       .  S
C1434      C1435   1.402       .  A
C1435      C1436   1.398       .  A
C1435      H1445   1.083       .  S
C1436      H1446   1.082       .  S
C1447      C1448   1.401       .  A
C1447      C1452   1.402       .  A
C1448      C1449   1.394       .  A
C1448      H1461   1.083       .  S
C1449      C1450   1.403       .  A
C1449      H1462   1.083       .  S
C1450      C1453   1.479       .  S
C1450      C1451   1.408       .  A
C1451      C1452   1.396       .  A
C1451      H1463   1.082       .  S
C1452      H1464   1.083       .  S
C1453      H1465   1.085       .  S
C1453      C1454   1.346       .  D
C1454      H1466   1.085       .  S
C1454      C1455   1.483       .  S
C1455      C1456   1.403       .  A
C1455      C1460   1.406       .  A
C1456      C1457   1.399       .  A
C1456      H1467   1.083       .  S
C1457      C1458   1.407       .  A
C1457      H1468   1.082       .  S
C1458      C1459   1.401       .  A
C1459      C1460   1.392       .  A
C1459      H1469   1.076       .  S
C1460      H1470   1.081       .  S
C1471      C1472   1.403       .  A
C1471      C1476   1.407       .  A
C1472      C1473   1.401       .  A
C1472      H1485   1.083       .  S
C1473      C1474   1.408       .  A
C1473      H1486   1.083       .  S
C1474      C1477   1.494       .  S
C1474      C1475   1.408       .  A
C1475      C1476   1.399       .  A
C1475      H1487   1.080       .  S
C1476      H1488   1.083       .  S
C1477      H1489   1.084       .  S
C1477      C1478   1.353       .  D
C1478      H1490   1.083       .  S
C1478      C1479   1.493       .  S
C1479      C1480   1.404       .  A
C1479      C1484   1.405       .  A
C1480      C1481   1.401       .  A
C1480      H1491   1.083       .  S
C1481      C1482   1.409       .  A
C1481      H1492   1.083       .  S
C1482      C1483   1.412       .  A
C1483      C1484   1.398       .  A
C1483      H1493   1.078       .  S
C1484      H1494   1.081       .  S
C1495      C1496   1.406       .  A
C1495      C1500   1.407       .  A
C1496      C1497   1.397       .  A
C1496      H1509   1.083       .  S
C1497      C1498   1.402       .  A
C1497      H1510   1.083       .  S
C1498      C1501   1.490       .  S
C1498      C1499   1.409       .  A
C1499      C1500   1.405       .  A
C1499      H1511   1.082       .  S
C1500      H1512   1.083       .  S
C1501      H1513   1.086       .  S
C1501      C1502   1.348       .  D
C1502      H1514   1.086       .  S
C1502      C1503   1.492       .  S
C1503      C1504   1.403       .  A
C1503      C1508   1.409       .  A
C1504      C1505   1.399       .  A
C1504      H1515   1.083       .  S
C1505      C1506   1.406       .  A
C1505      H1516   1.083       .  S
C1506      C1507   1.405       .  A
C1507      C1508   1.404       .  A
C1507      H1517   1.082       .  S
C1508      H1518   1.082       .  S
C1519      C1520   1.411       .  A
C1519      C1524   1.407       .  A
C1520      C1521   1.397       .  A
C1520      H1533   1.081       .  S
C1521      C1522   1.399       .  A
C1521      H1534   1.084       .  S
C1522      C1525   1.484       .  S
C1522      C1523   1.406       .  A
C1523      C1524   1.402       .  A
C1523      H1535   1.083       .  S
C1524      H1536   1.080       .  S
C1525      H1537   1.086       .  S
C1525      C1526   1.346       .  D
C1526      H1538   1.087       .  S
C1526      C1527   1.486       .  S
C1527      C1528   1.404       .  A
C1527      C1532   1.408       .  A
C1528      C1529   1.399       .  A
C1528      H1539   1.083       .  S
C1529      C1530   1.402       .  A
C1529      H1540   1.083       .  S
C1530      C1531   1.402       .  A
C1531      C1532   1.400       .  A
C1531      H1541   1.083       .  S
C1532      H1542   1.082       .  S
C1543      C1544   1.406       .  A
C1543      C1548   1.408       .  A
C1544      C1545   1.399       .  A
C1544      H1557   1.082       .  S
C1545      C1546   1.403       .  A
C1545      H1558   1.083       .  S
C1546      C1549   1.488       .  S
C1546      C1547   1.407       .  A
C1547      C1548   1.402       .  A
C1547      H1559   1.082       .  S
C1548      H1560   1.082       .  S
C1549      H1561   1.086       .  S
C1549      C1550   1.348       .  D
C1550      H1562   1.086       .  S
C1550      C1551   1.489       .  S
C1551      C1552   1.405       .  A
C1551      C1556   1.408       .  A
C1552      C1553   1.400       .  A
C1552      H1563   1.083       .  S
C1553      C1554   1.402       .  A
C1553      H1564   1.083       .  S
C1554      C1555   1.404       .  A
C1555      C1556   1.401       .  A
C1555      H1565   1.083       .  S
C1556      H1566   1.082       .  S
C1567      C1568   1.408       .  A
C1567      C1572   1.413       .  A
C1568      C1569   1.399       .  A
C1568      H1581   1.083       .  S
C1569      C1570   1.404       .  A
C1569      H1582   1.083       .  S
C1570      C1573   1.495       .  S
C1570      C1571   1.407       .  A
C1571      C1572   1.401       .  A
C1571      H1583   1.080       .  S
C1572      H1584   1.076       .  S
C1573      H1585   1.085       .  S
C1573      C1574   1.352       .  D
C1574      H1586   1.083       .  S
C1574      C1575   1.493       .  S
C1575      C1576   1.406       .  A
C1575      C1580   1.407       .  A
C1576      C1577   1.403       .  A
C1576      H1587   1.083       .  S
C1577      C1578   1.406       .  A
C1577      H1588   1.083       .  S
C1578      C1579   1.407       .  A
C1579      C1580   1.399       .  A
C1579      H1589   1.083       .  S
C1580      H1590   1.081       .  S
C1591      C1592   1.405       .  A
C1591      C1596   1.405       .  A
C1592      C1593   1.396       .  A
C1592      H1605   1.083       .  S
C1593      C1594   1.402       .  A
C1593      H1606   1.083       .  S
C1594      C1597   1.487       .  S
C1594      C1595   1.409       .  A
C1595      C1596   1.403       .  A
C1595      H1607   1.082       .  S
C1596      H1608   1.082       .  S
C1597      H1609   1.086       .  S
C1597      C1598   1.347       .  D
C1598      H1610   1.086       .  S
C1598      C1599   1.488       .  S
C1599      C1600   1.402       .  A
C1599      C1604   1.408       .  A
C1600      C1601   1.399       .  A
C1600      H1611   1.083       .  S
C1601      C1602   1.406       .  A
C1601      H1612   1.083       .  S
C1602      C1603   1.406       .  A
C1603      C1604   1.401       .  A
C1603      H1613   1.083       .  S
C1604      H1614   1.082       .  S
C1615      C1616   1.410       .  A
C1615      C1620   1.407       .  A
C1616      C1617   1.395       .  A
C1616      H1629   1.081   1_455  S
C1617      C1618   1.399       .  A
C1617      H1630   1.084       .  S
C1618      C1621   1.482       .  S
C1618      C1619   1.406       .  A
C1619      C1620   1.400       .  A
C1619      H1631   1.082       .  S
C1620      H1632   1.080       .  S
C1621      H1633   1.087       .  S
C1621      C1622   1.344       .  D
C1622      H1634   1.086       .  S
C1622      C1623   1.482       .  S
C1623      C1624   1.404       .  A
C1623      C1628   1.408       .  A
C1624      C1625   1.399       .  A
C1624      H1635   1.083       .  S
C1625      C1626   1.403       .  A
C1625      H1636   1.083       .  S
C1626      C1627   1.401       .  A
C1627      C1628   1.396       .  A
C1627      H1637   1.083       .  S
C1628      H1638   1.082       .  S
C1639      C1640   1.402       .  A
C1639      C1644   1.403       .  A
C1640      C1641   1.397       .  A
C1640      H1653   1.083       .  S
C1641      C1642   1.405       .  A
C1641      H1654   1.083       .  S
C1642      C1645   1.487       .  S
C1642      C1643   1.409       .  A
C1643      C1644   1.400       .  A
C1643      H1655   1.081       .  S
C1644      H1656   1.083       .  S
C1645      H1657   1.085       .  S
C1645      C1646   1.348       .  D
C1646      H1658   1.085       .  S
C1646      C1647   1.490       .  S
C1647      C1648   1.404       .  A
C1647      C1652   1.408       .  A
C1648      C1649   1.400       .  A
C1648      H1659   1.083       .  S
C1649      C1650   1.406       .  A
C1649      H1660   1.082       .  S
C1650      C1651   1.405       .  A
C1651      C1652   1.397       .  A
C1651      H1661   1.082       .  S
C1652      H1662   1.081       .  S
C1663      C1664   1.409       .  A
C1663      C1668   1.410       .  A
C1664      C1665   1.397       .  A
C1664      H1677   1.083       .  S
C1665      C1666   1.401       .  A
C1665      H1678   1.083       .  S
C1666      C1669   1.488       .  S
C1666      C1667   1.407       .  A
C1667      C1668   1.399       .  A
C1667      H1679   1.082       .  S
C1668      H1680   1.077       .  S
C1669      H1681   1.086       .  S
C1669      C1670   1.346       .  D
C1670      H1682   1.085       .  S
C1670      C1671   1.485       .  S
C1671      C1672   1.401       .  A
C1671      C1676   1.409       .  A
C1672      C1673   1.394       .  A
C1672      H1683   1.084       .  S
C1673      C1674   1.406       .  A
C1673      H1684   1.083       .  S
C1674      C1675   1.406       .  A
C1675      C1676   1.403       .  A
C1675      H1685   1.083       .  S
C1676      H1686   1.082       .  S
C1687      C1688   1.406       .  A
C1687      C1692   1.407       .  A
C1688      C1689   1.397       .  A
C1688      H1701   1.083       .  S
C1689      C1690   1.403       .  A
C1689      H1702   1.084       .  S
C1690      C1693   1.490       .  S
C1690      C1691   1.409       .  A
C1691      C1692   1.405       .  A
C1691      H1703   1.082       .  S
C1692      H1704   1.083       .  S
C1693      H1705   1.085       .  S
C1693      C1694   1.350       .  D
C1694      H1706   1.086       .  S
C1694      C1695   1.494       .  S
C1695      C1696   1.403       .  A
C1695      C1700   1.406       .  A
C1696      C1697   1.401       .  A
C1696      H1707   1.083       .  S
C1697      C1698   1.410       .  A
C1697      H1708   1.083       .  S
C1698      C1699   1.411       .  A
C1699      C1700   1.400       .  A
C1699      H1709   1.077       .  S
C1700      H1710   1.082       .  S
C1711      C1712   1.405       .  A
C1711      C1716   1.406       .  A
C1712      C1713   1.401       .  A
C1712      H1725   1.083       .  S
C1713      C1714   1.406       .  A
C1713      H1726   1.083       .  S
C1714      C1717   1.494       .  S
C1714      C1715   1.409       .  A
C1715      C1716   1.398       .  A
C1715      H1727   1.080       .  S
C1716      H1728   1.083       .  S
C1717      H1729   1.083       .  S
C1717      C1718   1.352       .  D
C1718      H1730   1.083       .  S
C1718      C1719   1.494       .  S
C1719      C1720   1.403       .  A
C1719      C1724   1.408       .  A
C1720      C1721   1.396       .  A
C1720      H1731   1.083       .  S
C1721      C1722   1.407       .  A
C1721      H1732   1.083       .  S
C1722      C1723   1.411       .  A
C1723      C1724   1.402       .  A
C1723      H1733   1.077       .  S
C1724      H1734   1.080       .  S
C1735      C1736   1.408       .  A
C1735      C1740   1.411       .  A
C1736      C1737   1.397       .  A
C1736      H1749   1.083       .  S
C1737      C1738   1.403       .  A
C1737      H1750   1.083       .  S
C1738      C1741   1.494       .  S
C1738      C1739   1.409       .  A
C1739      C1740   1.402       .  A
C1739      H1751   1.080       .  S
C1740      H1752   1.077       .  S
C1741      H1753   1.085       .  S
C1741      C1742   1.350       .  D
C1742      H1754   1.083       .  S
C1742      C1743   1.491       .  S
C1743      C1744   1.404       .  A
C1743      C1748   1.409       .  A
C1744      C1745   1.400       .  A
C1744      H1755   1.083       .  S
C1745      C1746   1.407       .  A
C1745      H1756   1.083   1_545  S
C1746      C1747   1.406       .  A
C1747      C1748   1.401       .  A
C1747      H1757   1.083       .  S
C1748      H1758   1.081       .  S
C1759      C1760   1.406       .  A
C1759      C1764   1.407       .  A
C1760      C1761   1.397       .  A
C1760      H1773   1.083       .  S
C1761      C1762   1.402       .  A
C1761      H1774   1.083       .  S
C1762      C1765   1.489       .  S
C1762      C1763   1.409       .  A
C1763      C1764   1.404       .  A
C1763      H1775   1.082       .  S
C1764      H1776   1.083       .  S
C1765      H1777   1.086       .  S
C1765      C1766   1.347       .  D
C1766      H1778   1.086       .  S
C1766      C1767   1.489       .  S
C1767      C1768   1.402       .  A
C1767      C1772   1.409       .  A
C1768      C1769   1.397       .  A
C1768      H1779   1.083       .  S
C1769      C1770   1.406       .  A
C1769      H1780   1.083       .  S
C1770      C1771   1.405       .  A
C1771      C1772   1.403       .  A
C1771      H1781   1.081       .  S
C1772      H1782   1.082       .  S
C1783      C1784   1.405       .  A
C1783      C1788   1.405       .  A
C1784      C1785   1.396       .  A
C1784      H1797   1.083       .  S
C1785      C1786   1.402       .  A
C1785      H1798   1.083       .  S
C1786      C1789   1.486       .  S
C1786      C1787   1.409       .  A
C1787      C1788   1.402       .  A
C1787      H1799   1.082       .  S
C1788      H1800   1.083       .  S
C1789      H1801   1.086       .  S
C1789      C1790   1.346       .  D
C1790      H1802   1.086       .  S
C1790      C1791   1.488       .  S
C1791      C1792   1.403       .  A
C1791      C1796   1.409       .  A
C1792      C1793   1.398       .  A
C1792      H1803   1.083       .  S
C1793      C1794   1.406       .  A
C1793      H1804   1.083       .  S
C1794      C1795   1.403       .  A
C1795      C1796   1.400       .  A
C1795      H1805   1.081       .  S
C1796      H1806   1.082       .  S
C1807      C1808   1.405       .  A
C1807      C1812   1.405       .  A
C1808      C1809   1.397       .  A
C1808      H1821   1.083       .  S
C1809      C1810   1.404       .  A
C1809      H1822   1.083       .  S
C1810      C1813   1.491       .  S
C1810      C1811   1.410       .  A
C1811      C1812   1.402       .  A
C1811      H1823   1.081       .  S
C1812      H1824   1.083   1_655  S
C1813      H1825   1.085       .  S
C1813      C1814   1.349       .  D
C1814      H1826   1.084       .  S
C1814      C1815   1.490       .  S
C1815      C1816   1.402       .  A
C1815      C1820   1.407       .  A
C1816      C1817   1.399       .  A
C1816      H1827   1.084       .  S
C1817      C1818   1.411       .  A
C1817      H1828   1.077       .  S
C1818      C1819   1.409       .  A
C1819      C1820   1.399       .  A
C1819      H1829   1.083       .  S
C1820      H1830   1.081       .  S
C1831      C1832   1.406       .  A
C1831      C1836   1.410       .  A
C1832      C1833   1.398       .  A
C1832      H1845   1.077       .  S
C1833      C1834   1.402       .  A
C1833      H1846   1.083       .  S
C1834      C1837   1.491       .  S
C1834      C1835   1.408       .  A
C1835      C1836   1.401       .  A
C1835      H1847   1.081       .  S
C1836      H1848   1.081       .  S
C1837      H1849   1.085       .  S
C1837      C1838   1.348       .  D
C1838      H1850   1.085       .  S
C1838      C1839   1.490       .  S
C1839      C1840   1.402       .  A
C1839      C1844   1.410       .  A
C1840      C1841   1.398       .  A
C1840      H1851   1.083       .  S
C1841      C1842   1.408       .  A
C1841      H1852   1.083       .  S
C1842      C1843   1.405       .  A
C1843      C1844   1.402       .  A
C1843      H1853   1.083       .  S
C1844      H1854   1.081       .  S
C1855      C1856   1.402       .  A
C1855      C1860   1.404       .  A
C1856      C1857   1.398       .  A
C1856      H1869   1.083       .  S
C1857      C1858   1.405       .  A
C1857      H1870   1.083       .  S
C1858      C1861   1.490       .  S
C1858      C1859   1.410       .  A
C1859      C1860   1.401       .  A
C1859      H1871   1.081       .  S
C1860      H1872   1.083       .  S
C1861      H1873   1.082       .  S
C1861      C1862   1.350       .  D
C1862      H1874   1.085       .  S
C1862      C1863   1.496       .  S
C1863      C1864   1.406       .  A
C1863      C1868   1.412       .  A
C1864      C1865   1.399       .  A
C1864      H1875   1.083       .  S
C1865      C1866   1.403       .  A
C1865      H1876   1.083       .  S
C1866      C1867   1.403       .  A
C1867      C1868   1.400       .  A
C1867      H1877   1.083       .  S
C1868      H1878   1.079       .  S
C1879      C1880   1.404       .  A
C1879      C1884   1.402       .  A
C1880      C1881   1.398       .  A
C1880      H1893   1.083   1_554  S
C1881      C1882   1.403       .  A
C1881      H1894   1.083       .  S
C1882      C1885   1.482       .  S
C1882      C1883   1.407       .  A
C1883      C1884   1.395       .  A
C1883      H1895   1.082       .  S
C1884      H1896   1.083       .  S
C1885      H1897   1.085       .  S
C1885      C1886   1.346       .  D
C1886      H1898   1.086       .  S
C1886      C1887   1.483       .  S
C1887      C1888   1.402       .  A
C1887      C1892   1.407       .  A
C1888      C1889   1.396       .  A
C1888      H1899   1.083       .  S
C1889      C1890   1.402       .  A
C1889      H1900   1.078       .  S
C1890      C1891   1.407       .  A
C1891      C1892   1.399       .  A
C1891      H1901   1.083       .  S
C1892      H1902   1.082       .  S
C1903      C1904   1.410       .  A
C1903      C1908   1.411       .  A
C1904      C1905   1.398       .  A
C1904      H1917   1.076       .  S
C1905      C1906   1.404       .  A
C1905      H1918   1.084       .  S
C1906      C1909   1.496       .  S
C1906      C1907   1.408       .  A
C1907      C1908   1.403       .  A
C1907      H1919   1.080       .  S
C1908      H1920   1.083       .  S
C1909      H1921   1.085       .  S
C1909      C1910   1.351       .  D
C1910      H1922   1.083       .  S
C1910      C1911   1.495       .  S
C1911      C1912   1.406       .  A
C1911      C1916   1.408       .  A
C1912      C1913   1.404       .  A
C1912      H1923   1.083       .  S
C1913      C1914   1.407       .  A
C1913      H1924   1.083       .  S
C1914      C1915   1.406       .  A
C1915      C1916   1.399       .  A
C1915      H1925   1.083       .  S
C1916      H1926   1.081       .  S
C1927      C1928   1.406       .  A
C1927      C1932   1.407       .  A
C1928      C1929   1.394       .  A
C1928      H1941   1.083       .  S
C1929      C1930   1.403       .  A
C1929      H1942   1.084       .  S
C1930      C1933   1.493       .  S
C1930      C1931   1.411       .  A
C1931      C1932   1.407       .  A
C1931      H1943   1.081       .  S
C1932      H1944   1.083       .  S
C1933      H1945   1.086       .  S
C1933      C1934   1.349       .  D
C1934      H1946   1.084       .  S
C1934      C1935   1.493       .  S
C1935      C1936   1.404       .  A
C1935      C1940   1.409       .  A
C1936      C1937   1.402       .  A
C1936      H1947   1.083       .  S
C1937      C1938   1.406       .  A
C1937      H1948   1.083       .  S
C1938      C1939   1.406       .  A
C1939      C1940   1.399       .  A
C1939      H1949   1.083       .  S
C1940      H1950   1.082       .  S
C1951      C1952   1.403       .  A
C1951      C1956   1.404       .  A
C1952      C1953   1.398       .  A
C1952      H1965   1.083       .  S
C1953      C1954   1.405       .  A
C1953      H1966   1.083       .  S
C1954      C1957   1.489       .  S
C1954      C1955   1.409       .  A
C1955      C1956   1.400       .  A
C1955      H1967   1.081       .  S
C1956      H1968   1.083       .  S
C1957      H1969   1.085       .  S
C1957      C1958   1.349       .  D
C1958      H1970   1.084       .  S
C1958      C1959   1.490       .  S
C1959      C1960   1.401       .  A
C1959      C1964   1.405       .  A
C1960      C1961   1.399       .  A
C1960      H1971   1.083       .  S
C1961      C1962   1.412       .  A
C1961      H1972   1.079       .  S
C1962      C1963   1.410       .  A
C1963      C1964   1.398       .  A
C1963      H1973   1.077       .  S
C1964      H1974   1.081       .  S
C1975      C1976   1.403       .  A
C1975      C1980   1.402       .  A
C1976      C1977   1.399       .  A
C1976      H1989   1.083       .  S
C1977      C1978   1.404       .  A
C1977      H1990   1.083       .  S
C1978      C1981   1.486       .  S
C1978      C1979   1.408       .  A
C1979      C1980   1.398       .  A
C1979      H1991   1.082       .  S
C1980      H1992   1.083       .  S
C1981      H1993   1.086       .  S
C1981      C1982   1.346       .  D
C1982      H1994   1.086       .  S
C1982      C1983   1.484       .  S
C1983      C1984   1.403       .  A
C1983      C1988   1.408       .  A
C1984      C1985   1.396       .  A
C1984      H1995   1.083       .  S
C1985      C1986   1.402       .  A
C1985      H1996   1.083       .  S
C1986      C1987   1.405       .  A
C1987      C1988   1.401       .  A
C1987      H1997   1.083       .  S
C1988      H1998   1.082       .  S
C1999      C2000   1.405       .  A
C1999      C2004   1.404       .  A
C2000      C2001   1.398       .  A
C2000      H2013   1.083       .  S
C2001      C2002   1.404       .  A
C2001      H2014   1.083       .  S
C2002      C2005   1.489       .  S
C2002      C2003   1.409       .  A
C2003      C2004   1.401       .  A
C2003      H2015   1.081       .  S
C2004      H2016   1.081       .  S
C2005      H2017   1.083       .  S
C2005      C2006   1.349       .  D
C2006      H2018   1.085       .  S
C2006      C2007   1.492       .  S
C2007      C2008   1.406       .  A
C2007      C2012   1.411       .  A
C2008      C2009   1.399       .  A
C2008      H2019   1.083       .  S
C2009      C2010   1.402       .  A
C2009      H2020   1.083       .  S
C2010      C2011   1.402       .  A
C2011      C2012   1.398       .  A
C2011      H2021   1.083       .  S
C2012      H2022   1.080       .  S
C2023      C2024   1.411       .  A
C2023      C2028   1.409       .  A
C2024      C2025   1.401       .  A
C2024      H2037   1.077       .  S
C2025      C2026   1.403       .  A
C2025      H2038   1.083       .  S
C2026      C2029   1.494       .  S
C2026      C2027   1.407       .  A
C2027      C2028   1.399       .  A
C2027      H2039   1.081       .  S
C2028      H2040   1.083       .  S
C2029      H2041   1.083       .  S
C2029      C2030   1.350       .  D
C2030      H2042   1.085       .  S
C2030      C2031   1.495       .  S
C2031      C2032   1.404       .  A
C2031      C2036   1.411       .  A
C2032      C2033   1.397       .  A
C2032      H2043   1.083       .  S
C2033      C2034   1.405       .  A
C2033      H2044   1.083       .  S
C2034      C2035   1.407       .  A
C2035      C2036   1.404       .  A
C2035      H2045   1.083       .  S
C2036      H2046   1.080       .  S
C2047      C2048   1.406       .  A
C2047      C2052   1.407       .  A
C2048      C2049   1.398       .  A
C2048      H2061   1.083       .  S
C2049      C2050   1.405       .  A
C2049      H2062   1.083       .  S
C2050      C2053   1.493       .  S
C2050      C2051   1.409       .  A
C2051      C2052   1.403       .  A
C2051      H2063   1.081       .  S
C2052      H2064   1.083       .  S
C2053      H2065   1.085       .  S
C2053      C2054   1.351       .  D
C2054      H2066   1.084       .  S
C2054      C2055   1.494       .  S
C2055      C2056   1.403       .  A
C2055      C2060   1.406       .  A
C2056      C2057   1.401       .  A
C2056      H2067   1.083       .  S
C2057      C2058   1.409       .  A
C2057      H2068   1.083       .  S
C2058      C2059   1.412       .  A
C2059      C2060   1.400       .  A
C2059      H2069   1.076       .  S
C2060      H2070   1.081       .  S
C2071      C2072   1.406       .  A
C2071      C2076   1.407       .  A
C2072      C2073   1.401       .  A
C2072      H2085   1.083       .  S
C2073      C2074   1.406       .  A
C2073      H2086   1.083       .  S
C2074      C2077   1.495       .  S
C2074      C2075   1.409       .  A
C2075      C2076   1.400       .  A
C2075      H2087   1.081       .  S
C2076      H2088   1.083       .  S
C2077      H2089   1.083       .  S
C2077      C2078   1.351       .  D
C2078      H2090   1.084       .  S
C2078      C2079   1.495       .  S
C2079      C2080   1.402       .  A
C2079      C2084   1.410       .  A
C2080      C2081   1.396       .  A
C2080      H2091   1.084       .  S
C2081      C2082   1.409       .  A
C2081      H2092   1.083       .  S
C2082      C2083   1.410       .  A
C2083      C2084   1.405       .  A
C2083      H2093   1.078       .  S
C2084      H2094   1.080       .  S
C2095      C2096   1.408       .  A
C2095      C2100   1.411       .  A
C2096      C2097   1.396       .  A
C2096      H2109   1.083       .  S
C2097      C2098   1.402       .  A
C2097      H2110   1.083       .  S
C2098      C2101   1.491       .  S
C2098      C2099   1.408       .  A
C2099      C2100   1.402       .  A
C2099      H2111   1.080       .  S
C2100      H2112   1.077       .  S
C2101      H2113   1.085       .  S
C2101      C2102   1.350       .  D
C2102      H2114   1.084       .  S
C2102      C2103   1.490       .  S
C2103      C2104   1.405       .  A
C2103      C2108   1.408       .  A
C2104      C2105   1.401       .  A
C2104      H2115   1.083       .  S
C2105      C2106   1.406       .  A
C2105      H2116   1.083       .  S
C2106      C2107   1.406       .  A
C2107      C2108   1.398       .  A
C2107      H2117   1.083       .  S
C2108      H2118   1.081       .  S
C2119      C2120   1.404       .  A
C2119      C2124   1.404       .  A
C2120      C2121   1.395       .  A
C2120      H2133   1.083       .  S
C2121      C2122   1.404       .  A
C2121      H2134   1.083       .  S
C2122      C2125   1.490       .  S
C2122      C2123   1.410       .  A
C2123      C2124   1.401       .  A
C2123      H2135   1.080       .  S
C2124      H2136   1.083       .  S
C2125      H2137   1.085       .  S
C2125      C2126   1.349       .  D
C2126      H2138   1.083       .  S
C2126      C2127   1.490       .  S
C2127      C2128   1.405       .  A
C2127      C2132   1.408       .  A
C2128      C2129   1.401       .  A
C2128      H2139   1.083       .  S
C2129      C2130   1.406       .  A
C2129      H2140   1.083       .  S
C2130      C2131   1.405       .  A
C2131      C2132   1.396       .  A
C2131      H2141   1.083       .  S
C2132      H2142   1.081       .  S
C2143      C2144   1.404       .  A
C2143      C2148   1.404       .  A
C2144      C2145   1.397       .  A
C2144      H2157   1.083       .  S
C2145      C2146   1.403       .  A
C2145      H2158   1.083       .  S
C2146      C2149   1.489       .  S
C2146      C2147   1.410       .  A
C2147      C2148   1.402       .  A
C2147      H2159   1.082       .  S
C2148      H2160   1.083       .  S
C2149      H2161   1.086       .  S
C2149      C2150   1.347       .  D
C2150      H2162   1.086       .  S
C2150      C2151   1.488       .  S
C2151      C2152   1.403       .  A
C2151      C2156   1.409       .  A
C2152      C2153   1.397       .  A
C2152      H2163   1.083       .  S
C2153      C2154   1.405       .  A
C2153      H2164   1.083       .  S
C2154      C2155   1.406       .  A
C2155      C2156   1.402       .  A
C2155      H2165   1.083       .  S
C2156      H2166   1.082       .  S
C2167      C2168   1.404       .  A
C2167      C2172   1.405       .  A
C2168      C2169   1.396       .  A
C2168      H2181   1.082       .  S
C2169      C2170   1.404       .  A
C2169      H2182   1.083       .  S
C2170      C2173   1.490       .  S
C2170      C2171   1.410       .  A
C2171      C2172   1.399       .  A
C2171      H2183   1.080       .  S
C2172      H2184   1.083       .  S
C2173      H2185   1.083       .  S
C2173      C2174   1.349       .  D
C2174      H2186   1.083       .  S
C2174      C2175   1.490       .  S
C2175      C2176   1.406       .  A
C2175      C2180   1.410       .  A
C2176      C2177   1.398       .  A
C2176      H2187   1.083       .  S
C2177      C2178   1.402       .  A
C2177      H2188   1.083   1_455  S
C2178      C2179   1.403       .  A
C2179      C2180   1.396       .  A
C2179      H2189   1.083       .  S
C2180      H2190   1.080       .  S
C2191      C2192   1.409       .  A
C2191      C2196   1.411       .  A
C2192      C2193   1.398       .  A
C2192      H2205   1.083       .  S
C2193      C2194   1.401       .  A
C2193      H2206   1.083       .  S
C2194      C2197   1.488       .  S
C2194      C2195   1.406       .  A
C2195      C2196   1.399       .  A
C2195      H2207   1.082       .  S
C2196      H2208   1.077       .  S
C2197      H2209   1.086       .  S
C2197      C2198   1.346       .  D
C2198      H2210   1.085       .  S
C2198      C2199   1.485       .  S
C2199      C2200   1.401       .  A
C2199      C2204   1.409       .  A
C2200      C2201   1.394       .  A
C2200      H2211   1.084       .  S
C2201      C2202   1.406       .  A
C2201      H2212   1.083       .  S
C2202      C2203   1.406       .  A
C2203      C2204   1.403       .  A
C2203      H2213   1.083       .  S
C2204      H2214   1.082       .  S
C2215      C2216   1.407       .  A
C2215      C2220   1.407       .  A
C2216      C2217   1.400       .  A
C2216      H2229   1.083       .  S
C2217      C2218   1.403       .  A
C2217      H2230   1.083       .  S
C2218      C2221   1.486       .  S
C2218      C2219   1.406       .  A
C2219      C2220   1.399       .  A
C2219      H2231   1.082       .  S
C2220      H2232   1.083       .  S
C2221      H2233   1.086       .  S
C2221      C2222   1.347       .  D
C2222      H2234   1.086       .  S
C2222      C2223   1.486       .  S
C2223      C2224   1.405       .  A
C2223      C2228   1.407       .  A
C2224      C2225   1.401       .  A
C2224      H2235   1.083       .  S
C2225      C2226   1.403       .  A
C2225      H2236   1.083       .  S
C2226      C2227   1.404       .  A
C2227      C2228   1.399       .  A
C2227      H2237   1.083       .  S
C2228      H2238   1.082       .  S
C2239      C2240   1.403       .  A
C2239      C2244   1.401       .  A
C2240      C2241   1.400       .  A
C2240      H2253   1.083       .  S
C2241      C2242   1.404       .  A
C2241      H2254   1.083       .  S
C2242      C2245   1.484       .  S
C2242      C2243   1.407       .  A
C2243      C2244   1.397       .  A
C2243      H2255   1.082       .  S
C2244      H2256   1.083       .  S
C2245      H2257   1.086       .  S
C2245      C2246   1.345       .  D
C2246      H2258   1.087       .  S
C2246      C2247   1.483       .  S
C2247      C2248   1.400       .  A
C2247      C2252   1.406       .  A
C2248      C2249   1.397       .  A
C2248      H2259   1.083       .  S
C2249      C2250   1.409       .  A
C2249      H2260   1.081       .  S
C2250      C2251   1.407       .  A
C2251      C2252   1.401       .  A
C2251      H2261   1.081       .  S
C2252      H2262   1.083       .  S
C2263      C2264   1.404       .  A
C2263      C2268   1.404       .  A
C2264      C2265   1.397       .  A
C2264      H2277   1.083       .  S
C2265      C2266   1.404       .  A
C2265      H2278   1.083       .  S
C2266      C2269   1.487       .  S
C2266      C2267   1.409       .  A
C2267      C2268   1.399       .  A
C2267      H2279   1.081       .  S
C2268      H2280   1.083       .  S
C2269      H2281   1.085       .  S
C2269      C2270   1.349       .  D
C2270      H2282   1.085       .  S
C2270      C2271   1.489       .  S
C2271      C2272   1.405       .  A
C2271      C2276   1.408       .  A
C2272      C2273   1.400       .  A
C2272      H2283   1.083       .  S
C2273      C2274   1.405       .  A
C2273      H2284   1.083       .  S
C2274      C2275   1.403       .  A
C2275      C2276   1.397       .  A
C2275      H2285   1.083       .  S
C2276      H2286   1.081       .  S
C2287      C2288   1.410       .  A
C2287      C2292   1.411       .  A
C2288      C2289   1.400       .  A
C2288      H2301   1.083       .  S
C2289      C2290   1.403       .  A
C2289      H2302   1.083       .  S
C2290      C2293   1.491       .  S
C2290      C2291   1.406       .  A
C2291      C2292   1.399       .  A
C2291      H2303   1.081       .  S
C2292      H2304   1.076       .  S
C2293      H2305   1.085       .  S
C2293      C2294   1.350       .  D
C2294      H2306   1.085       .  S
C2294      C2295   1.489       .  S
C2295      C2296   1.404       .  A
C2295      C2300   1.408       .  A
C2296      C2297   1.397       .  A
C2296      H2307   1.083       .  S
C2297      C2298   1.405       .  A
C2297      H2308   1.083       .  S
C2298      C2299   1.406       .  A
C2299      C2300   1.401       .  A
C2299      H2309   1.083       .  S
C2300      H2310   1.081       .  S
C2311      C2312   1.406       .  A
C2311      C2316   1.406       .  A
C2312      C2313   1.400       .  A
C2312      H2325   1.083       .  S
C2313      C2314   1.404       .  A
C2313      H2326   1.083       .  S
C2314      C2317   1.489       .  S
C2314      C2315   1.408       .  A
C2315      C2316   1.399       .  A
C2315      H2327   1.082       .  S
C2316      H2328   1.083       .  S
C2317      H2329   1.086       .  S
C2317      C2318   1.347       .  D
C2318      H2330   1.086       .  S
C2318      C2319   1.487       .  S
C2319      C2320   1.402       .  A
C2319      C2324   1.409       .  A
C2320      C2321   1.397       .  A
C2320      H2331   1.083       .  S
C2321      C2322   1.403       .  A
C2321      H2332   1.078       .  S
C2322      C2323   1.405       .  A
C2323      C2324   1.402       .  A
C2323      H2333   1.083       .  S
C2324      H2334   1.082       .  S
C2335      C2336   1.409       .  A
C2335      C2340   1.406       .  A
C2336      C2337   1.401       .  A
C2336      H2349   1.082       .  S
C2337      C2338   1.405       .  A
C2337      H2350   1.083       .  S
C2338      C2341   1.493       .  S
C2338      C2339   1.407       .  A
C2339      C2340   1.396       .  A
C2339      H2351   1.080       .  S
C2340      H2352   1.076       .  S
C2341      H2353   1.084       .  S
C2341      C2342   1.351       .  D
C2342      H2354   1.083       .  S
C2342      C2343   1.491       .  S
C2343      C2344   1.406       .  A
C2343      C2348   1.410       .  A
C2344      C2345   1.399       .  A
C2344      H2355   1.083       .  S
C2345      C2346   1.402       .  A
C2345      H2356   1.083       .  S
C2346      C2347   1.402       .  A
C2347      C2348   1.399       .  A
C2347      H2357   1.083       .  S
C2348      H2358   1.080       .  S
C2359      C2360   1.403       .  A
C2359      C2364   1.403       .  A
C2360      C2361   1.399       .  A
C2360      H2373   1.083   1_565  S
C2361      C2362   1.406       .  A
C2361      H2374   1.083       .  S
C2362      C2365   1.489       .  S
C2362      C2363   1.409       .  A
C2363      C2364   1.398       .  A
C2363      H2375   1.081       .  S
C2364      H2376   1.083       .  S
C2365      H2377   1.085       .  S
C2365      C2366   1.348       .  D
C2366      H2378   1.085       .  S
C2366      C2367   1.489       .  S
C2367      C2368   1.404       .  A
C2367      C2372   1.409       .  A
C2368      C2369   1.397       .  A
C2368      H2379   1.083       .  S
C2369      C2370   1.404       .  A
C2369      H2380   1.083       .  S
C2370      C2371   1.404       .  A
C2371      C2372   1.400       .  A
C2371      H2381   1.083       .  S
C2372      H2382   1.081       .  S
