geometry optimzed in LAMMPS
_audit_creation_date              2020-11-30 
_audit_creation_method            'lammps2cif' 
_symmetry_space_group_name_H-M    'P1' 
_symmetry_Int_Tables_number       1 
_symmetry_cell_setting            triclinic 
loop_ 
_symmetry_equiv_pos_as_xyz 
  x,y,z 
_cell_length_a                    32.778671589096014 
_cell_length_b                    32.826669968427026 
_cell_length_c                    32.78681037343128 
_cell_angle_alpha                 90.20768210130069 
_cell_angle_beta                  89.83479350582526 
_cell_angle_gamma                 89.91409333725888 
loop_ 
_atom_site_label 
_atom_site_type_symbol 
_atom_site_fract_x 
_atom_site_fract_y 
_atom_site_fract_z 
_atom_site_charge 
O1          O  0.06761666  0.47017889  0.55443542    -0.71840
O2          O  0.06835721  0.52833002  0.45428627    -0.72060
O3          O  0.06611401  0.54904798  0.53368027    -0.71920
O4          O  0.07011790  0.44939732  0.47519754    -0.71920
O5          O  0.00408716  0.44600296  0.47701021    -0.71880
O6          O  0.00015015  0.54937724  0.52930867    -0.71900
O7          O  0.00221256  0.52408308  0.45178066    -0.71850
O8          O  0.00127666  0.47122704  0.55441618    -0.72030
V9          V  0.06680362  0.49923047  0.50437616     1.35240
V10         V  0.00319818  0.49770627  0.50314911     1.35170
C11         C  0.03421211  0.46087423  0.57135441     0.77400
C12         C  0.03529460  0.53591520  0.43601113     0.77460
C13         C  0.03258317  0.56676096  0.54076059     0.77330
C14         C  0.03784095  0.43016833  0.46686349     0.77290
O15         O  0.36079311  0.89190003  0.55139782    -0.71840
O16         O  0.41043302  0.88668693  0.44708879    -0.72060
O17         O  0.33340246  0.88895185  0.47442252    -0.71920
O18         O  0.43855193  0.88767940  0.52437292    -0.71920
O19         O  0.43275954  0.82224642  0.53209982    -0.71880
O20         O  0.33633585  0.82318239  0.46973653    -0.71900
O21         O  0.41606542  0.82127136  0.45210077    -0.71850
O22         O  0.35246531  0.82622612  0.55006574    -0.72030
V23         V  0.38590831  0.88766272  0.49936955     1.35240
V24         V  0.38442301  0.82437323  0.50107104     1.35170
C25         C  0.34630764  0.86026915  0.56756885     0.77400
C26         C  0.42279844  0.85351567  0.43196941     0.77460
C27         C  0.31749800  0.85582008  0.46249821     0.77330
C28         C  0.45287546  0.85441386  0.53781168     0.77290
O29         O  0.77116946  0.52400261  0.55097029    -0.71840
O30         O  0.77197068  0.47426118  0.44622120    -0.72060
O31         O  0.77235513  0.55166606  0.47383280    -0.71920
O32         O  0.77086834  0.44745500  0.52310487    -0.71920
O33         O  0.70472629  0.44967074  0.52590249    -0.71880
O34         O  0.70628486  0.55080150  0.47007228    -0.71900
O35         O  0.70566631  0.47228562  0.44712538    -0.71850
O36         O  0.70512889  0.52798420  0.54890131    -0.72030
V37         V  0.77031178  0.49945998  0.49845791     1.35240
V38         V  0.70668378  0.50020369  0.49796384     1.35170
C39         C  0.73804324  0.53455005  0.56782143     0.77400
C40         C  0.73893015  0.46381405  0.42942501     0.77460
C41         C  0.73962911  0.56873249  0.46280438     0.77330
C42         C  0.73765184  0.43128918  0.53391123     0.77290
O43         O  0.41632576  0.45208138  0.10854317    -0.71840
O44         O  0.35892250  0.55253640  0.11096600    -0.72060
O45         O  0.43787231  0.53094900  0.11216413    -0.71920
O46         O  0.33737936  0.47378116  0.10747069    -0.71920
O47         O  0.33577009  0.47139157  0.17367317    -0.71880
O48         O  0.43594922  0.52874072  0.17839843    -0.71900
O49         O  0.35677884  0.55020063  0.17712420    -0.71850
O50         O  0.41469494  0.44992608  0.17474819    -0.72030
V51         V  0.38761459  0.50229788  0.11107750     1.35240
V52         V  0.38585686  0.50012624  0.17470249     1.35170
C53         C  0.42522365  0.43386431  0.14122104     0.77400
C54         C  0.34778301  0.56834199  0.14439328     0.77460
C55         C  0.45392947  0.53960372  0.14610016     0.77330
C56         C  0.31950631  0.46284886  0.13982700     0.77290
C57         C  0.17200867  0.36832355  0.14499351     0.03070
C58         C  0.17186198  0.33890304  0.17581998    -0.13080
C59         C  0.13718433  0.31502555  0.18260999     0.00570
C60         C  0.10271698  0.32041222  0.15811408    -0.11610
C61         C  0.10299283  0.34900484  0.12650472     0.03060
C62         C  0.13766298  0.37318744  0.12003182    -0.11030
H63         H  0.19845686  0.33524648  0.19506668     0.08660
H64         H  0.07585644  0.30182941  0.16312379     0.06180
H65         H  0.13785117  0.39568286  0.09592316     0.06030
C66         C  0.02171479  0.34300420  0.78568581     0.03070
C67         C  0.01597729  0.36840342  0.75177640    -0.13080
C68         C  0.04139898  0.36444722  0.71742966     0.00570
C69         C  0.07239560  0.33499685  0.71715167    -0.11610
C70         C  0.07822493  0.30959478  0.75080360     0.03060
C71         C  0.05295294  0.31375643  0.78505508    -0.11030
H72         H  0.99188189  0.39104322  0.75210064     0.08660
H73         H  0.09203793  0.33189167  0.69064535     0.06180
H74         H  0.05725695  0.29393766  0.81107927     0.06030
C75         C  0.74901035  0.34806089  0.21307095     0.03070
C76         C  0.71954038  0.31716226  0.21418907    -0.13080
C77         C  0.69435783  0.31234887  0.24832986     0.00570
C78         C  0.69943852  0.33790881  0.28220244    -0.11610
C79         C  0.72904225  0.36873079  0.28172285     0.03060
C80         C  0.75350962  0.37407868  0.24690362    -0.11030
H81         H  0.71613135  0.29683426  0.18828102     0.08660
H82         H  0.68021171  0.33403310  0.30886866     0.06180
H83         H  0.77616678  0.39807728  0.24631759     0.06030
O84         O  0.85459581  0.31802560  0.04909789    -0.71840
O85         O  0.91540326  0.31606245  0.95012103    -0.72060
O86         O  0.93418242  0.31910606  0.02977543    -0.71920
O87         O  0.83576899  0.31486594  0.96936353    -0.71920
O88         O  0.83206537  0.38074408  0.97130641    -0.71880
O89         O  0.93495324  0.38485553  0.02410939    -0.71900
O90         O  0.91063921  0.38203199  0.94654670    -0.71850
O91         O  0.85643186  0.38424909  0.04889058    -0.72030
V92         V  0.88495490  0.31823904  0.99956928     1.35240
V93         V  0.88352261  0.38171238  0.99774193     1.35170
C94         C  0.84548112  0.35157987  0.06586925     0.77400
C95         C  0.92321936  0.34882769  0.93152934     0.77460
C96         C  0.95207601  0.35257934  0.03624797     0.77330
C97         C  0.81651587  0.34707419  0.96078942     0.77290
C98         C  0.60327632  0.63099986  0.15880423     0.03070
C99         C  0.60359636  0.66289703  0.18727634    -0.13080
C100        C  0.63876997  0.68640887  0.19284201     0.00570
C101        C  0.67372318  0.67797577  0.16958430    -0.11610
C102        C  0.67348981  0.64648636  0.14059881     0.03060
C103        C  0.63826747  0.62278338  0.13545810    -0.11030
H104        H  0.57652038  0.66915488  0.20533051     0.08660
H105        H  0.70078625  0.69656434  0.17326115     0.06180
H106        H  0.63789061  0.59849791  0.11297868     0.06030
C107        C  0.72829397  0.62295917  0.71953521     0.03070
C108        C  0.70399984  0.65750861  0.71421534    -0.13080
C109        C  0.70437337  0.68841428  0.74336221     0.00570
C110        C  0.73173264  0.68640355  0.77583652    -0.11610
C111        C  0.75296919  0.65013626  0.78463538     0.03060
C112        C  0.74979156  0.61767719  0.75624591    -0.11030
H113        H  0.68498464  0.66034238  0.68735950     0.08660
H114        H  0.73495509  0.71300903  0.79509767     0.06180
H115        H  0.76434231  0.58870128  0.76174080     0.06030
C116        C  0.04011886  0.62951820  0.28770707     0.03070
C117        C  0.07051074  0.65946938  0.28654593    -0.13080
C118        C  0.07522678  0.68419574  0.25216984     0.00570
C119        C  0.04959832  0.67865961  0.21855525    -0.11610
C120        C  0.01876052  0.64916832  0.21952664     0.03060
C121        C  0.01401665  0.62449375  0.25413988    -0.11030
H122        H  0.09047651  0.66357183  0.31254952     0.08660
H123        H  0.05300047  0.69790749  0.19195498     0.06180
H124        H  0.99015078  0.60170578  0.25499643     0.06030
O125        O  0.83779659  0.60832846  0.02988257    -0.71840
O126        O  0.93880855  0.61855396  0.97310619    -0.72060
O127        O  0.91614528  0.61220056  0.05187155    -0.71920
O128        O  0.85978282  0.61446108  0.95088816    -0.71920
O129        O  0.85693052  0.68028597  0.95411282    -0.71880
O130        O  0.91131858  0.67787231  0.05645776    -0.71900
O131        O  0.93514801  0.68447176  0.97861627    -0.71850
O132        O  0.83282030  0.67431446  0.03251905    -0.72030
V133        V  0.88810552  0.61467235  0.00142183     1.35240
V134        V  0.88404252  0.67796637  0.00533370     1.35170
C135        C  0.81833462  0.63970246  0.04113470     0.77400
C136        C  0.95431958  0.65323844  0.96666873     0.77460
C137        C  0.92331730  0.64453497  0.07157097     0.77330
C138        C  0.84866246  0.64772470  0.93508343     0.77290
C139        C  0.59760276  0.36220183  0.85023413     0.03070
C140        C  0.62908549  0.36036824  0.87949219    -0.13080
C141        C  0.66508842  0.33847705  0.87117740     0.00570
C142        C  0.66765046  0.31408925  0.83623931    -0.11610
C143        C  0.63551651  0.31334191  0.80848304     0.03060
C144        C  0.60234816  0.33957676  0.81395683    -0.11030
H145        H  0.62623210  0.37630079  0.90829187     0.08660
H146        H  0.69440875  0.29529424  0.83101684     0.06180
H147        H  0.57943237  0.34107278  0.79027832     0.06030
C148        C  0.17068419  0.64037543  0.85005849     0.03070
C149        C  0.16562291  0.66428644  0.81494180    -0.13080
C150        C  0.13404064  0.69262617  0.81233807     0.00570
C151        C  0.10370440  0.69346964  0.84213057    -0.11610
C152        C  0.10456124  0.66575430  0.87452844     0.03060
C153        C  0.13948988  0.64125851  0.87998101    -0.11030
H154        H  0.18749882  0.66241713  0.79016889     0.08660
H155        H  0.07843543  0.71461808  0.83922477     0.06180
H156        H  0.14185580  0.62278575  0.90707078     0.06030
O157        O  0.43418306  0.47078404  0.82479820    -0.71840
O158        O  0.33715902  0.53418393  0.82341291    -0.72060
O159        O  0.41765089  0.55090507  0.82270915    -0.71920
O160        O  0.35402431  0.45423061  0.82528983    -0.71920
O161        O  0.35550364  0.45502495  0.89155928    -0.71880
O162        O  0.41609688  0.55392770  0.88892901    -0.71900
O163        O  0.33618302  0.53458344  0.88968128    -0.71850
O164        O  0.43509399  0.47410186  0.89097827    -0.72030
V165        V  0.38575381  0.50262163  0.82533988     1.35240
V166        V  0.38572146  0.50443833  0.88900166     1.35170
C167        C  0.45106365  0.46151647  0.85813600     0.77400
C168        C  0.31986486  0.54470097  0.85633787     0.77460
C169        C  0.42775576  0.56883895  0.85533511     0.77330
C170        C  0.34427643  0.43798266  0.85881682     0.77290
C171        C  0.51773691  0.28475085  0.14757758     0.03070
C172        C  0.54740161  0.28464876  0.17821539    -0.13080
C173        C  0.57122804  0.24993323  0.18500045     0.00570
C174        C  0.56529673  0.21518148  0.16080744    -0.11610
C175        C  0.53649413  0.21534817  0.12924833     0.03060
C176        C  0.51251137  0.25021665  0.12276747    -0.11030
H177        H  0.55149670  0.31146789  0.19716011     0.08660
H178        H  0.58389341  0.18831164  0.16574047     0.06180
H179        H  0.49004051  0.25050491  0.09859285     0.06030
C180        C  0.55074414  0.78181782  0.86483746     0.03070
C181        C  0.52799351  0.74630430  0.87204496    -0.13080
C182        C  0.52868735  0.71384144  0.84373981     0.00570
C183        C  0.55442703  0.71698759  0.80943460    -0.11610
C184        C  0.58038964  0.75044669  0.80453183     0.03060
C185        C  0.57755354  0.78335896  0.83156192    -0.11030
H186        H  0.50917816  0.74451433  0.89917064     0.08660
H187        H  0.55493653  0.69297847  0.78668288     0.06180
H188        H  0.59642865  0.81005824  0.82696802     0.06030
C189        C  0.51785572  0.84575436  0.28248359     0.03070
C190        C  0.55028743  0.81790360  0.28364592    -0.13080
C191        C  0.57589493  0.81269900  0.24977030     0.00570
C192        C  0.56968174  0.83636374  0.21485223    -0.11610
C193        C  0.53816031  0.86524363  0.21373931     0.03060
C194        C  0.51189830  0.86959077  0.24742870    -0.11030
H195        H  0.55496156  0.79954884  0.31066877     0.08660
H196        H  0.58965895  0.83266714  0.18868104     0.06180
H197        H  0.48714102  0.89147344  0.24644783     0.06030
O198        O  0.49986326  0.96974920  0.04789425    -0.71840
O199        O  0.50302332  0.02342084  0.94555825    -0.72060
O200        O  0.50382735  0.94541311  0.96964217    -0.71920
O201        O  0.49953927  0.04827680  0.02340736    -0.71920
O202        O  0.56528801  0.04728710  0.02945951    -0.71880
O203        O  0.57005013  0.94844745  0.96934161    -0.71900
O204        O  0.56885670  0.02818585  0.94982747    -0.71850
O205        O  0.56613557  0.96810816  0.04887229    -0.72030
V206        V  0.50281378  0.99670905  0.99675331     1.35240
V207        V  0.56633719  0.99795095  0.99928586     1.35170
C208        C  0.53245310  0.95915096  0.06545282     0.77400
C209        C  0.53628767  0.03592538  0.93066166     0.77460
C210        C  0.53775605  0.92982629  0.95968901     0.77330
C211        C  0.53180216  0.06534789  0.03585311     0.77290
C212        C  0.23089255  0.78388172  0.13296628     0.03070
C213        C  0.25557354  0.74931451  0.12683675    -0.13080
C214        C  0.25148853  0.71541662  0.15249172     0.00570
C215        C  0.22190639  0.71559374  0.18335235    -0.11610
C216        C  0.19717473  0.74984510  0.18968097     0.03060
C217        C  0.20227298  0.78419905  0.16493905    -0.11030
H218        H  0.27791006  0.74886554  0.10240748     0.08660
H219        H  0.21845316  0.68912779  0.20274966     0.06180
H220        H  0.18315409  0.81077389  0.16974700     0.06030
C221        C  0.25198823  0.28738643  0.85050805     0.03070
C222        C  0.22865770  0.28230574  0.81487980    -0.13080
C223        C  0.20364845  0.24823167  0.80959904     0.00570
C224        C  0.20592277  0.21607840  0.83724823    -0.11610
C225        C  0.23057422  0.21930105  0.87189626     0.03060
C226        C  0.25196662  0.25569220  0.87952401    -0.11030
H227        H  0.22851949  0.30575805  0.79171477     0.08660
H228        H  0.18757352  0.18901936  0.83252828     0.06180
H229        H  0.26859086  0.25897346  0.90781385     0.06030
C230        C  0.24832850  0.85409545  0.71417837     0.03070
C231        C  0.22109597  0.82112455  0.71561498    -0.13080
C232        C  0.19587950  0.81516487  0.74956664     0.00570
C233        C  0.19966920  0.84074209  0.78356562    -0.11610
C234        C  0.22715028  0.87332180  0.78296562     0.03060
C235        C  0.25065093  0.88066679  0.74789681    -0.11030
H236        H  0.21909106  0.80030494  0.68995798     0.08660
H237        H  0.18077455  0.83575457  0.81028188     0.06180
H238        H  0.27090913  0.90669746  0.74710725     0.06030
O239        O  0.20241026  0.97143041  0.95289915    -0.71840
O240        O  0.20403893  0.03161825  0.05205094    -0.72060
O241        O  0.20305093  0.05094694  0.97235339    -0.71920
O242        O  0.20371238  0.95218977  0.03265678    -0.71920
O243        O  0.26918003  0.94841714  0.02480436    -0.71880
O244        O  0.26871137  0.05407635  0.97794425    -0.71900
O245        O  0.27000638  0.02531042  0.05401921    -0.71850
O246        O  0.26820152  0.97745039  0.94847008    -0.72030
V247        V  0.20442909  0.00152584  0.00246966     1.35240
V248        V  0.26785120  0.00127274  0.00133325     1.35170
C249        C  0.23505629  0.96509869  0.93321435     0.77400
C250        C  0.23737266  0.03809143  0.07023961     0.77460
C251        C  0.23585464  0.07019150  0.96591543     0.77330
C252        C  0.23656838  0.93268444  0.03806780     0.77290
C253        C  0.60284935  0.84992067  0.63073833     0.03070
C254        C  0.63360607  0.87989965  0.63040674    -0.13080
C255        C  0.66966662  0.87392832  0.65269794     0.00570
C256        C  0.67322016  0.84047495  0.67873740    -0.11610
C257        C  0.64207692  0.81171761  0.68064838     0.03060
C258        C  0.60856184  0.81507589  0.65479178    -0.11030
H259        H  0.63014893  0.90717941  0.61228192     0.08660
H260        H  0.70016061  0.83696340  0.69752880     0.06180
H261        H  0.58601821  0.79095790  0.65470678     0.06030
C262        C  0.73148495  0.28372216  0.62769186     0.03070
C263        C  0.70167077  0.28444441  0.65831601    -0.13080
C264        C  0.69648056  0.25087673  0.68391426     0.00570
C265        C  0.72158207  0.21668095  0.67915500    -0.11610
C266        C  0.75203947  0.21615662  0.64916183     0.03060
C267        C  0.75691325  0.24962159  0.62317305    -0.11030
H268        H  0.68219229  0.31096236  0.66184589     0.08660
H269        H  0.71781548  0.19067294  0.69910672     0.06180
H270        H  0.78028989  0.24916460  0.59973329     0.06030
C271        C  0.03739947  0.71736343  0.63194697     0.03070
C272        C  0.01297938  0.75192521  0.62582746    -0.13080
C273        C  0.01833619  0.78650555  0.65047108     0.00570
C274        C  0.04852356  0.78669809  0.68062973    -0.11610
C275        C  0.07270372  0.75212225  0.68706112     0.03060
C276        C  0.06675232  0.71739408  0.66293192    -0.11030
H277        H  0.99001909  0.75190896  0.60211002     0.08660
H278        H  0.05270730  0.81355227  0.69949967     0.06180
H279        H  0.08560140  0.69064660  0.66759425     0.06030
O280        O  0.91392587  0.95153162  0.60969458    -0.71840
O281        O  0.85857683  0.05296942  0.61057662    -0.72060
O282        O  0.93701418  0.03000346  0.60946058    -0.71920
O283        O  0.83548090  0.97494725  0.61083818    -0.71920
O284        O  0.83642563  0.97445023  0.67710404    -0.71880
O285        O  0.93742766  0.03062443  0.67577638    -0.71900
O286        O  0.85853815  0.05286082  0.67684916    -0.71850
O287        O  0.91533530  0.95206487  0.67591087    -0.72030
V288        V  0.88630397  0.00234139  0.61144551     1.35240
V289        V  0.88695641  0.00248649  0.67514107     1.35170
C290        C  0.92426404  0.93459010  0.64263191     0.77400
C291        C  0.84861266  0.06986954  0.64380810     0.77460
C292        C  0.95429475  0.03993512  0.64240050     0.77330
C293        C  0.81863328  0.96543930  0.64416071     0.77290
C294        C  0.54116563  0.13227999  0.78311325     0.03070
C295        C  0.56969155  0.16407445  0.78265875    -0.13080
C296        C  0.57399291  0.18868962  0.74809121     0.00570
C297        C  0.54913202  0.18183460  0.71411888    -0.11610
C298        C  0.51985494  0.15081702  0.71458678     0.03060
C299        C  0.51599277  0.12581171  0.74906083    -0.11030
H300        H  0.58910698  0.16907392  0.80891514     0.08660
H301        H  0.55224059  0.20094220  0.68737937     0.06180
H302        H  0.49366130  0.10151068  0.74936607     0.06030
C303        C  0.25107206  0.15564009  0.28524883     0.03070
C304        C  0.25588836  0.12966658  0.25147697    -0.13080
C305        C  0.23169904  0.13513721  0.21669838     0.00570
C306        C  0.20306318  0.16681945  0.21556473    -0.11610
C307        C  0.19777990  0.19262499  0.24926898     0.03060
C308        C  0.22166224  0.18673821  0.28422016    -0.11030
H309        H  0.27845166  0.10551658  0.25216981     0.08660
H310        H  0.18446138  0.17096601  0.18859608     0.06180
H311        H  0.21786689  0.20671762  0.31035819     0.06030
C312        C  0.17186507  0.15019481  0.63078635     0.03070
C313        C  0.17289110  0.17961108  0.66175047    -0.13080
C314        C  0.13879006  0.18606113  0.68666882     0.00570
C315        C  0.10359231  0.16267470  0.68065543    -0.11610
C316        C  0.10261823  0.13273948  0.65011342     0.03060
C317        C  0.13676249  0.12659068  0.62498645    -0.11030
H318        H  0.20009817  0.19787233  0.66601469     0.08660
H319        H  0.07713598  0.16734196  0.70005332     0.06180
H320        H  0.13606963  0.10356126  0.60122973     0.06030
O321        O  0.33693545  0.17620479  0.52856642    -0.71840
O322        O  0.43725349  0.17727399  0.47054779    -0.72060
O323        O  0.35798483  0.17755629  0.44969074    -0.71920
O324        O  0.41601021  0.17611249  0.54972013    -0.71920
O325        O  0.41571616  0.10994602  0.54884358    -0.71880
O326        O  0.35886346  0.11147169  0.44786758    -0.71900
O327        O  0.43759354  0.11106302  0.46988546    -0.71850
O328        O  0.33697346  0.10998947  0.52676857    -0.72030
V329        V  0.38709438  0.17551194  0.49961139     1.35240
V330        V  0.38730214  0.11191355  0.49837666     1.35170
C331        C  0.31988527  0.14286084  0.53734578     0.77400
C332        C  0.45435970  0.14425922  0.46022494     0.77460
C333        C  0.34836620  0.14482086  0.43174136     0.77330
C334        C  0.42560320  0.14282143  0.56643804     0.77290
C335        C  0.09757897  0.86038156  0.35450236     0.03070
C336        C  0.13227509  0.86705780  0.37844478    -0.13080
C337        C  0.16784772  0.84445881  0.37101717     0.00570
C338        C  0.16880383  0.81564009  0.33938975    -0.11610
C339        C  0.13400971  0.80842398  0.31583606     0.03060
C340        C  0.09831404  0.83061221  0.32376223    -0.11030
H341        H  0.13182650  0.89011588  0.40218575     0.08660
H342        H  0.19640455  0.79823550  0.33375234     0.06180
H343        H  0.07155137  0.82589478  0.30497741     0.06030
C344        C  0.73394674  0.71835992  0.37112114     0.03070
C345        C  0.70463177  0.71818027  0.34011200    -0.13080
C346        C  0.69911016  0.75248864  0.31543872     0.00570
C347        C  0.72342069  0.78696516  0.32166289    -0.11610
C348        C  0.75340628  0.78711169  0.35202867     0.03060
C349        C  0.75856337  0.75282915  0.37697413    -0.11030
H350        H  0.68574624  0.69146219  0.33558137     0.08660
H351        H  0.71954888  0.81347370  0.30241281     0.06180
H352        H  0.78152255  0.75296720  0.40068808     0.06030
C353        C  0.66878672  0.13146498  0.34167251     0.03070
C354        C  0.66785136  0.16208340  0.31201782    -0.13080
C355        C  0.63345304  0.18694163  0.30785603     0.00570
C356        C  0.59968849  0.18094194  0.33327515    -0.11610
C357        C  0.60050033  0.15068394  0.36325054     0.03060
C358        C  0.63505916  0.12580931  0.36747149    -0.11030
H359        H  0.69405234  0.16664308  0.29229525     0.08660
H360        H  0.57299563  0.20023223  0.33021616     0.06180
H361        H  0.63583136  0.10253786  0.39081846     0.06030
C362        C  0.05171914  0.28139654  0.37404635     0.03070
C363        C  0.07523027  0.28656579  0.33886192    -0.13080
C364        C  0.07408668  0.25718376  0.30816684     0.00570
C365        C  0.04632912  0.22509186  0.31092211    -0.11610
C366        C  0.02603008  0.21653199  0.34785551     0.03060
C367        C  0.03048621  0.24477368  0.38017034    -0.11030
H368        H  0.09440555  0.31324298  0.33551800     0.08660
H369        H  0.04228654  0.20582823  0.28441370     0.06180
H370        H  0.01711671  0.23931444  0.40971617     0.06030
O371        O  0.91614193  0.05262524  0.38607910    -0.71840
O372        O  0.85584910  0.95418448  0.38903912    -0.72060
O373        O  0.93545650  0.97316829  0.38933830    -0.71920
O374        O  0.83619870  0.03369848  0.38490555    -0.71920
O375        O  0.83727116  0.02963963  0.31872932    -0.71880
O376        O  0.93672869  0.97071232  0.32328613    -0.71900
O377        O  0.85778717  0.95063804  0.32288811    -0.71850
O378        O  0.91680428  0.05046266  0.32011417    -0.72030
V379        V  0.88588450  0.00341771  0.38605974     1.35240
V380        V  0.88716909  0.00053394  0.32252853     1.35170
C381        C  0.92701661  0.06847376  0.35276845     0.77400
C382        C  0.84692026  0.93540888  0.35660475     0.77460
C383        C  0.95284877  0.96122959  0.35688656     0.77330
C384        C  0.81963185  0.04143050  0.35094632     0.77290
C385        C  0.66257730  0.28069972  0.24824018     0.03110
C386        C  0.63248427  0.28063380  0.21791669    -0.13080
C387        C  0.60258110  0.25012129  0.21711794     0.00570
C388        C  0.60291559  0.21959210  0.24685446    -0.11610
C389        C  0.63295397  0.21941270  0.27714442     0.03060
C390        C  0.66269779  0.25005001  0.27784665    -0.11030
H391        H  0.63250245  0.30418697  0.19481025     0.08660
H392        H  0.57991625  0.19589066  0.24635220     0.06180
H393        H  0.68603786  0.24987720  0.30121816     0.06030
C394        C  0.60842308  0.78169178  0.25060373     0.03070
C395        C  0.60894813  0.75037289  0.22143315    -0.13080
C396        C  0.63888921  0.71986635  0.22287953     0.00570
C397        C  0.66851450  0.72090736  0.25356594    -0.11610
C398        C  0.66823212  0.75208338  0.28288019     0.03060
C399        C  0.63814522  0.78246885  0.28128750    -0.11030
H400        H  0.58581946  0.74951150  0.19786848     0.08660
H401        H  0.69161830  0.69727050  0.25481693     0.06180
H402        H  0.63763105  0.80646349  0.30409435     0.06030
C403        C  0.10604858  0.71674022  0.25204501     0.03070
C404        C  0.13591149  0.71819855  0.22144225    -0.13080
C405        C  0.16540027  0.74913246  0.22156872     0.00570
C406        C  0.16470235  0.77883887  0.25243221    -0.11610
C407        C  0.13479473  0.77755681  0.28312657     0.03060
C408        C  0.10559019  0.74646465  0.28277326    -0.11030
H409        H  0.13632275  0.69516482  0.19765863     0.08660
H410        H  0.18745034  0.80277313  0.25265153     0.06180
H411        H  0.08250876  0.74533339  0.30650849     0.06030
C412        C  0.10435674  0.75232374  0.71881570     0.03070
C413        C  0.10421344  0.72257610  0.74940587    -0.13080
C414        C  0.13422542  0.72298118  0.77967498     0.00570
C415        C  0.16434583  0.75316801  0.77952134    -0.11610
C416        C  0.16477770  0.78288265  0.74907380     0.03060
C417        C  0.13475224  0.78236871  0.71869648    -0.11030
H418        H  0.08070626  0.69937967  0.74983361     0.08660
H419        H  0.18730807  0.75366609  0.80324380     0.06180
H420        H  0.13488253  0.80547660  0.69514617     0.06030
C421        C  0.13981399  0.21766973  0.71854147     0.03070
C422        C  0.17106853  0.21793600  0.74772039    -0.13080
C423        C  0.17205322  0.24831167  0.77779545     0.00570
C424        C  0.14146393  0.27825709  0.77881689    -0.11610
C425        C  0.11026718  0.27817001  0.74974600     0.03060
C426        C  0.10959201  0.24789560  0.71959878    -0.11030
H427        H  0.19438669  0.19448224  0.74717363     0.08660
H428        H  0.14177066  0.30147864  0.80239915     0.06180
H429        H  0.08551384  0.24784534  0.69698440     0.06030
C430        C  0.60499086  0.22110759  0.74705692     0.03070
C431        C  0.63492628  0.22106079  0.71650050    -0.13080
C432        C  0.66481208  0.25152709  0.71563606     0.00570
C433        C  0.66468697  0.28230623  0.74535979    -0.11610
C434        C  0.63478959  0.28259276  0.77586777     0.03060
C435        C  0.60503203  0.25192806  0.77670780    -0.11030
H436        H  0.63512264  0.19719859  0.69354349     0.08660
H437        H  0.68803715  0.30566307  0.74503871     0.06180
H438        H  0.58215882  0.25183725  0.80065632     0.06030
C439        C  0.61176201  0.75013866  0.77225731     0.03070
C440        C  0.64236695  0.72033901  0.77238238    -0.13080
C441        C  0.67322022  0.72049671  0.74262500     0.00570
C442        C  0.67324685  0.75027974  0.71224815    -0.11610
C443        C  0.64257111  0.78000317  0.71191445     0.03060
C444        C  0.61207588  0.78005263  0.74205819    -0.11030
H445        H  0.64230801  0.69708175  0.79578203     0.08660
H446        H  0.69685304  0.75027131  0.68902063     0.06180
H447        H  0.58868187  0.80342300  0.74206259     0.06030
C448        C  0.13680247  0.28459574  0.21543621     0.03070
C449        C  0.16705015  0.25428836  0.21690654    -0.13080
C450        C  0.16670788  0.22516080  0.24809183     0.00570
C451        C  0.13591212  0.22652922  0.27770006    -0.11610
C452        C  0.10548171  0.25653663  0.27622403     0.03060
C453        C  0.10601306  0.28564173  0.24524128    -0.11030
H454        H  0.19070299  0.25328728  0.19374419     0.08660
H455        H  0.13545966  0.20405285  0.30185435     0.06180
H456        H  0.08266197  0.30904904  0.24440942     0.06030
C457        C  0.01176636  0.14308456  0.32857521    -0.01910
C458        C  0.00120343  0.17813767  0.35176744     0.07770
C459        C  0.96581398  0.17555681  0.37679178    -0.02020
C460        C  0.94629975  0.13767642  0.38195355    -0.02020
C461        C  0.95183224  0.10659111  0.35230187     0.07900
C462        C  0.98312754  0.11194896  0.32317883    -0.02220
Br463      Br  0.98699100  0.08009654  0.27403963    -0.00770
Br464      Br  0.06683147  0.13245742  0.30965715    -0.00840
Br465      Br  0.91459727  0.12965735  0.43096592    -0.00800
Br466      Br  0.93868205  0.22285534  0.39942637    -0.00780
C467        C  0.74143567  0.12578943  0.36220852    -0.01910
C468        C  0.70626367  0.10706189  0.34643690     0.07770
C469        C  0.70821933  0.06676959  0.33155141    -0.02020
C470        C  0.74541163  0.04519193  0.33269514    -0.02020
C471        C  0.78061337  0.06390607  0.34887694     0.07900
C472        C  0.77860820  0.10458691  0.36246365    -0.02220
Br473      Br  0.82749344  0.13319689  0.37659904    -0.00770
Br474      Br  0.73867199  0.18082033  0.38331537    -0.00840
Br475      Br  0.74826889  0.99055707  0.31098010    -0.00800
Br476      Br  0.66031397  0.04186723  0.30822754    -0.00780
C477        C  0.81734810  0.82545462  0.33693300    -0.01910
C478        C  0.77933737  0.82347792  0.35691931     0.07770
C479        C  0.76454047  0.85741416  0.37877160    -0.02020
C480        C  0.78717072  0.89378654  0.37973209    -0.02020
C481        C  0.82439658  0.89649908  0.35807143     0.07900
C482        C  0.83989626  0.86189168  0.33749630    -0.02220
Br483      Br  0.89280229  0.86369452  0.31146116    -0.00770
Br484      Br  0.83788471  0.77841293  0.30789435    -0.00840
Br485      Br  0.76595587  0.94016640  0.40939864    -0.00800
Br486      Br  0.71267242  0.85406670  0.40661599    -0.00780
C487        C  0.02230533  0.94299797  0.32897325    -0.01910
C488        C  0.99082555  0.93632045  0.35790513     0.07770
C489        C  0.99541686  0.90457217  0.38675166    -0.02020
C490        C  0.03094354  0.88026241  0.38652462    -0.02020
C491        C  0.06197888  0.88760827  0.35780720     0.07900
C492        C  0.05795728  0.91933750  0.32957415    -0.02220
Br493      Br  0.10181845  0.93013129  0.29139248    -0.00770
Br494      Br  0.01768925  0.98371279  0.28738313    -0.00840
Br495      Br  0.03682654  0.83584439  0.42445177    -0.00800
Br496      Br  0.95184455  0.89126683  0.42417313    -0.00780
C497        C  0.56312440  0.16623669  0.42782416    -0.01910
C498        C  0.56475217  0.14576539  0.39003598     0.07770
C499        C  0.53072943  0.12385973  0.37591174    -0.02020
C500        C  0.49461407  0.12321176  0.39905396    -0.02020
C501        C  0.49261919  0.14427533  0.43661867     0.07900
C502        C  0.52707699  0.16546845  0.45118868    -0.02220
Br503      Br  0.52531846  0.19274297  0.50344887    -0.00770
Br504      Br  0.61004205  0.19617502  0.44687964    -0.00840
Br505      Br  0.44708513  0.09582675  0.37766294    -0.00800
Br506      Br  0.53357925  0.09548461  0.32428861    -0.00780
C507        C  0.21022381  0.16398279  0.56662607    -0.01910
C508        C  0.20807505  0.14459959  0.60479922     0.07770
C509        C  0.24190401  0.12304354  0.61993725    -0.02020
C510        C  0.27840664  0.12182349  0.59745016    -0.02020
C511        C  0.28105205  0.14230484  0.55980004     0.07900
C512        C  0.24672618  0.16281768  0.54406345    -0.02220
Br513      Br  0.24935873  0.18855981  0.49124813    -0.00770
Br514      Br  0.16354199  0.19329160  0.54606553    -0.00840
Br515      Br  0.32539699  0.09416044  0.61957502    -0.00800
Br516      Br  0.23825135  0.09593658  0.67198871    -0.00780
C517        C  0.31148721  0.17646302  0.32658669    -0.01910
C518        C  0.27730515  0.15105089  0.32156690     0.07770
C519        C  0.26737861  0.12234155  0.35176376    -0.02020
C520        C  0.29085179  0.11981616  0.38760439    -0.02020
C521        C  0.32487542  0.14575512  0.39312195     0.07900
C522        C  0.33543175  0.17367004  0.36205748    -0.02220
Br523      Br  0.38364996  0.20712518  0.36686261    -0.00770
Br524      Br  0.32542976  0.21508428  0.28449613    -0.00840
Br525      Br  0.27422814  0.08257309  0.42999465    -0.00800
Br526      Br  0.22068789  0.08733400  0.34431686    -0.00780
C527        C  0.43414700  0.16595547  0.63893946    -0.01910
C528        C  0.44819005  0.14250016  0.60547410     0.07770
C529        C  0.48462176  0.11974013  0.60909308    -0.02020
C530        C  0.50719941  0.12116288  0.64554548    -0.02020
C531        C  0.49353646  0.14520856  0.67849811     0.07900
C532        C  0.45682484  0.16726392  0.67533291    -0.02220
Br533      Br  0.43835393  0.20014373  0.72072996    -0.00770
Br534      Br  0.38348317  0.19585346  0.63550358    -0.00840
Br535      Br  0.55779139  0.09137392  0.65011668    -0.00800
Br536      Br  0.50553113  0.08898834  0.56324472    -0.00780
C537        C  0.99507244  0.10112115  0.62347834    -0.01910
C538        C  0.99303163  0.06246633  0.64201804     0.07770
C539        C  0.02771476  0.04602159  0.66129806    -0.02020
C540        C  0.06411183  0.06856651  0.66277147    -0.02020
C541        C  0.06575804  0.10762255  0.64522033     0.07900
C542        C  0.03139091  0.12375301  0.62527785    -0.02220
Br543      Br  0.03409269  0.17718509  0.60100261    -0.00770
Br544      Br  0.94754895  0.12416812  0.59756273    -0.00840
Br545      Br  0.11143609  0.04660691  0.68992557    -0.00800
Br546      Br  0.02566263  0.99229416  0.68499867    -0.00780
C547        C  0.95705275  0.82723131  0.66986348    -0.01910
C548        C  0.99219376  0.82269951  0.64551671     0.07770
C549        C  0.00399805  0.85391444  0.61871436    -0.02020
C550        C  0.98140092  0.89034630  0.61714311    -0.02020
C551        C  0.94666824  0.89548261  0.64234941     0.07900
C552        C  0.93413603  0.86343349  0.66815753    -0.02220
Br553      Br  0.88482892  0.86821630  0.70026065    -0.00770
Br554      Br  0.94085582  0.78382400  0.70602821    -0.00840
Br555      Br  0.00005452  0.93394305  0.58236560    -0.00800
Br556      Br  0.05202348  0.84697199  0.58515041    -0.00780
C557        C  0.78881395  0.11082898  0.62075669    -0.01910
C558        C  0.82501437  0.10809679  0.64389371     0.07770
C559        C  0.83797447  0.14168918  0.66752848    -0.02020
C560        C  0.81465401  0.17767007  0.66818951    -0.02020
C561        C  0.77846046  0.18010226  0.64534044     0.07900
C562        C  0.76567353  0.14686955  0.62146006    -0.02220
Br563      Br  0.71569417  0.15061190  0.59063573    -0.00770
Br564      Br  0.76896450  0.06440226  0.59036222    -0.00840
Br565      Br  0.83167858  0.22356081  0.70094055    -0.00800
Br566      Br  0.88800790  0.13903564  0.69838549    -0.00780
C567        C  0.70938142  0.93677554  0.66930124    -0.01910
C568        C  0.70547380  0.90032373  0.64699211     0.07770
C569        C  0.73795334  0.88618210  0.62252388    -0.02020
C570        C  0.77495970  0.90759786  0.62152557    -0.02020
C571        C  0.77933353  0.94374785  0.64446790     0.07900
C572        C  0.74624730  0.95867008  0.66790138    -0.02220
Br573      Br  0.75093235  0.00940409  0.69748959    -0.00770
Br574      Br  0.66462815  0.95574837  0.70270819    -0.00840
Br575      Br  0.82055271  0.88535658  0.59123177    -0.00800
Br576      Br  0.73189885  0.83663736  0.59111646    -0.00780
C577        C  0.26124232  0.09738216  0.11161667    -0.01910
C578        C  0.23824015  0.06115856  0.10889633     0.07770
C579        C  0.21495904  0.04804882  0.14263049    -0.02020
C580        C  0.21388538  0.07163422  0.17856017    -0.02020
C581        C  0.23619912  0.10820259  0.18086157     0.07900
C582        C  0.26026679  0.12077863  0.14761364    -0.02220
Br583      Br  0.29106089  0.17074708  0.15126259    -0.00770
Br584      Br  0.29183442  0.11669508  0.06512990    -0.00840
Br585      Br  0.18098186  0.05462767  0.22433086    -0.00800
Br586      Br  0.18521204  0.99739687  0.13995539    -0.00780
C587        C  0.26041319  0.88878628  0.84952732    -0.01910
C588        C  0.23139313  0.89906855  0.81971628     0.07770
C589        C  0.20439926  0.93178807  0.82645054    -0.02020
C590        C  0.20608455  0.95403329  0.86321025    -0.02020
C591        C  0.23455288  0.94321570  0.89365092     0.07900
C592        C  0.26197094  0.91065475  0.88647945    -0.02220
Br593      Br  0.29983434  0.89367293  0.92819636    -0.00770
Br594      Br  0.29699423  0.84351783  0.84018546    -0.00840
Br595      Br  0.17018521  0.00014070  0.87093049    -0.00800
Br596      Br  0.16472517  0.94552971  0.78530631    -0.00780
C597        C  0.26804453  0.15803322  0.89681408    -0.01910
C598        C  0.23385902  0.18387072  0.89950851     0.07770
C599        C  0.20110259  0.17357116  0.92525799    -0.02020
C600        C  0.20213032  0.13717965  0.94793068    -0.02020
C601        C  0.23589297  0.11020595  0.94437111     0.07900
C602        C  0.26929159  0.12145494  0.91910672    -0.02220
Br603      Br  0.31627150  0.08631542  0.91195555    -0.00770
Br604      Br  0.31212486  0.17147503  0.86001373    -0.00840
Br605      Br  0.15738912  0.12599321  0.98476357    -0.00800
Br606      Br  0.15443787  0.20947965  0.92882912    -0.00780
C607        C  0.27025375  0.88139096  0.08475731    -0.01910
C608        C  0.23675632  0.89279881  0.05985045     0.07770
C609        C  0.20286100  0.86612102  0.05682558    -0.02020
C610        C  0.20158003  0.83006638  0.07997254    -0.02020
C611        C  0.23421048  0.81982102  0.10586870     0.07900
C612        C  0.26891762  0.84498291  0.10742284    -0.02220
Br613      Br  0.31400048  0.83047989  0.14241215    -0.00770
Br614      Br  0.31753588  0.91608563  0.09065737    -0.00840
Br615      Br  0.15521516  0.79393733  0.07565635    -0.00800
Br616      Br  0.15843701  0.87713356  0.01972213    -0.00780
C617        C  0.56748818  0.07503658  0.82580895    -0.01910
C618        C  0.53828078  0.10587273  0.81948501     0.07770
C619        C  0.50800517  0.11328397  0.84908875    -0.02020
C620        C  0.50738821  0.09056880  0.88545429    -0.02020
C621        C  0.53677291  0.05959140  0.89209954     0.07900
C622        C  0.56658441  0.05167859  0.86178042    -0.02220
Br623      Br  0.60532003  0.00777819  0.86821435    -0.00770
Br624      Br  0.60871434  0.06484642  0.78479743    -0.00840
Br625      Br  0.46776122  0.10444716  0.92704326    -0.00800
Br626      Br  0.46820324  0.15576715  0.84020159    -0.00780
C627        C  0.55194673  0.92955597  0.17543839    -0.01910
C628        C  0.53336610  0.89090694  0.17706748     0.07770
C629        C  0.51290209  0.87547844  0.14261396    -0.02020
C630        C  0.51170323  0.89825052  0.10631213    -0.02020
C631        C  0.53132117  0.93644734  0.10427277     0.07900
C632        C  0.55089000  0.95232469  0.13913281    -0.02220
Br633      Br  0.57529998  0.00579682  0.13750423    -0.00770
Br634      Br  0.57993984  0.95067875  0.22267352    -0.00840
Br635      Br  0.48505911  0.87596240  0.05879340    -0.00800
Br636      Br  0.48736697  0.82259957  0.14509502    -0.00780
C637        C  0.56237156  0.85783192  0.95157181    -0.01910
C638        C  0.53965929  0.89114676  0.93656823     0.07770
C639        C  0.51953671  0.88781199  0.89873036    -0.02020
C640        C  0.52227973  0.85150176  0.87596696    -0.02020
C641        C  0.54539408  0.81845353  0.89070556     0.07900
C642        C  0.56517303  0.82152556  0.92865278    -0.02220
Br643      Br  0.59700375  0.77630235  0.94851628    -0.00770
Br644      Br  0.58910857  0.86152631  0.00383075    -0.00840
Br645      Br  0.49457188  0.84701695  0.82422080    -0.00800
Br646      Br  0.49052046  0.93392398  0.87654368    -0.00780
C647        C  0.56331674  0.13350672  0.05191391    -0.01910
C648        C  0.53087955  0.10543556  0.05734946     0.07770
C649        C  0.49845651  0.11569762  0.08427007    -0.02020
C650        C  0.49943294  0.15258426  0.10643277    -0.02020
C651        C  0.53288733  0.17911771  0.10250075     0.07900
C652        C  0.56446848  0.16982094  0.07481879    -0.02220
Br653      Br  0.60940232  0.20737476  0.06815789    -0.00770
Br654      Br  0.60577604  0.12401329  0.01185018    -0.00840
Br655      Br  0.45577967  0.16606912  0.14383357    -0.00800
Br656      Br  0.45357406  0.07871521  0.09353434    -0.00780
C657        C  0.33712362  0.36379142  0.87502741    -0.01910
C658        C  0.32017530  0.39999931  0.85952734     0.07770
C659        C  0.28024161  0.39958981  0.84396975    -0.02020
C660        C  0.25647732  0.36413512  0.84694407    -0.02020
C661        C  0.27503755  0.32635507  0.85688102     0.07900
C662        C  0.31623843  0.32655890  0.87017552    -0.02220
Br663      Br  0.34663931  0.27678031  0.87770048    -0.00770
Br664      Br  0.38939832  0.36483004  0.90200492    -0.00840
Br665      Br  0.19797590  0.36918718  0.84086495    -0.00800
Br666      Br  0.25802504  0.44704470  0.81741229    -0.00780
C667        C  0.49424153  0.60301300  0.84063408    -0.01910
C668        C  0.45351534  0.60579723  0.85408343     0.07770
C669        C  0.43770829  0.64397309  0.86593553    -0.02020
C670        C  0.46094525  0.67958440  0.85986067    -0.02020
C671        C  0.50290956  0.67658671  0.84938853     0.07900
C672        C  0.51979418  0.63734260  0.84244226    -0.02220
Br673      Br  0.57817132  0.62902791  0.83894972    -0.00770
Br674      Br  0.51519090  0.55250806  0.81872686    -0.00840
Br675      Br  0.43316580  0.73155194  0.86173568    -0.00800
Br676      Br  0.38422781  0.64774477  0.89030019    -0.00780
C677        C  0.20883363  0.57536442  0.86975448    -0.01910
C678        C  0.20909731  0.61585094  0.85462600     0.07770
C679        C  0.24693762  0.63245316  0.84145523    -0.02020
C680        C  0.28125479  0.60722321  0.83709880    -0.02020
C681        C  0.28178516  0.56881065  0.85585255     0.07900
C682        C  0.24592495  0.55406735  0.87450259    -0.02220
Br683      Br  0.24706370  0.50454247  0.90604528    -0.00770
Br684      Br  0.15864422  0.54616763  0.87962748    -0.00840
Br685      Br  0.32684200  0.62556186  0.80457202    -0.00800
Br686      Br  0.25451096  0.69039604  0.83352908    -0.00780
C687        C  0.52132968  0.37107058  0.84378707    -0.01910
C688        C  0.55951592  0.38688932  0.85662247     0.07770
C689        C  0.56061110  0.42712069  0.87276465    -0.02020
C690        C  0.52410133  0.44941258  0.87762165    -0.02020
C691        C  0.48807346  0.43576895  0.85862068     0.07900
C692        C  0.48742839  0.39697727  0.84020539    -0.02220
Br693      Br  0.44056006  0.37880825  0.80951921    -0.00770
Br694      Br  0.51315401  0.31330909  0.83484936    -0.00840
Br695      Br  0.52405103  0.49889529  0.90970226    -0.00800
Br696      Br  0.61129902  0.45482459  0.88415660    -0.00780
C697        C  0.03020079  0.66438019  0.96464865    -0.01910
C698        C  0.99314984  0.65712875  0.94414289     0.07770
C699        C  0.99300900  0.65328248  0.90152351    -0.02020
C700        C  0.02979628  0.65224015  0.87971286    -0.02020
C701        C  0.06706281  0.66072771  0.89967834     0.07900
C702        C  0.06705796  0.66725425  0.94235010    -0.02220
Br703      Br  0.11668255  0.68216366  0.97010487    -0.00770
Br704      Br  0.03001729  0.67201814  0.02296945    -0.00840
Br705      Br  0.02852903  0.63716341  0.82257349    -0.00800
Br706      Br  0.94225994  0.65448362  0.87232432    -0.00780
C707        C  0.00056189  0.61598191  0.15352637    -0.01910
C708        C  0.99155778  0.64489882  0.18394909     0.07770
C709        C  0.95880086  0.67210384  0.17882941    -0.02020
C710        C  0.93561193  0.67122765  0.14274597    -0.02020
C711        C  0.94564820  0.64342040  0.11104575     0.07900
C712        C  0.97785269  0.61511576  0.11714658    -0.02220
Br713      Br  0.99343899  0.57629874  0.07537324    -0.00770
Br714      Br  0.04546664  0.57863846  0.16129495    -0.00840
Br715      Br  0.88917470  0.70732397  0.13831454    -0.00800
Br716      Br  0.94618432  0.71094427  0.22147881    -0.00780
C717        C  0.76527127  0.66955737  0.85860219    -0.01910
C718        C  0.77754317  0.64728967  0.82339271     0.07770
C719        C  0.81449027  0.62469002  0.82591790    -0.02020
C720        C  0.83430772  0.62051220  0.86387835    -0.02020
C721        C  0.82556336  0.64834046  0.89592130     0.07900
C722        C  0.79286112  0.67580157  0.89058270    -0.02220
Br723      Br  0.78583196  0.72392524  0.92396558    -0.00770
Br724      Br  0.70931318  0.68625097  0.86804812    -0.00840
Br725      Br  0.87306418  0.57658948  0.87033600    -0.00800
Br726      Br  0.84253337  0.60400629  0.77818242    -0.00780
C727        C  0.78138076  0.62262235  0.10572233    -0.01910
C728        C  0.78021017  0.63639811  0.06505395     0.07770
C729        C  0.74297578  0.64968600  0.04838555    -0.02020
C730        C  0.70794674  0.65271290  0.07299553    -0.02020
C731        C  0.70946862  0.64035417  0.11403389     0.07900
C732        C  0.74593151  0.62427461  0.13008300    -0.02220
Br733      Br  0.74718254  0.60475906  0.18550545    -0.00770
Br734      Br  0.83178743  0.60273154  0.12848432    -0.00840
Br735      Br  0.65852822  0.67608454  0.05104793    -0.00800
Br736      Br  0.73912343  0.66133338  0.99128972    -0.00780
C737        C  0.76675303  0.37583873  0.91012706    -0.01910
C738        C  0.77676514  0.34549468  0.93907385     0.07770
C739        C  0.74847974  0.31372187  0.94692515    -0.02020
C740        C  0.71116171  0.31227038  0.92575796    -0.02020
C741        C  0.70152811  0.34257299  0.89719590     0.07900
C742        C  0.72915136  0.37443946  0.88962380    -0.02220
Br743      Br  0.71614248  0.41516743  0.84925198    -0.00770
Br744      Br  0.80538913  0.41778501  0.89527611    -0.00840
Br745      Br  0.67308832  0.26842396  0.93516587    -0.00800
Br746      Br  0.75943587  0.27225933  0.98718763    -0.00780
C747        C  0.81716988  0.34541575  0.17772285    -0.01910
C748        C  0.77467285  0.35257929  0.17606083     0.07770
C749        C  0.75604217  0.36105497  0.13821594    -0.02020
C750        C  0.77941997  0.36084723  0.10222248    -0.02020
C751        C  0.82154454  0.35272758  0.10385018     0.07900
C752        C  0.84055942  0.34574209  0.14161202    -0.02220
Br753      Br  0.89870692  0.33668710  0.14360607    -0.00770
Br754      Br  0.84323149  0.33301230  0.22893945    -0.00840
Br755      Br  0.75350656  0.37072630  0.05041320    -0.00800
Br756      Br  0.69846574  0.37360693  0.13552139    -0.00780
C757        C  0.01195098  0.36210149  0.85887444    -0.01910
C758        C  0.99543529  0.34677168  0.82225486     0.07770
C759        C  0.95468156  0.33298777  0.82131538    -0.02020
C760        C  0.93080015  0.33392071  0.85709682    -0.02020
C761        C  0.94762497  0.34857806  0.89378235     0.07900
C762        C  0.98807804  0.36300655  0.89455312    -0.02220
Br763      Br  0.01129606  0.38283435  0.94486785    -0.00770
Br764      Br  0.06730206  0.38219926  0.86006054    -0.00840
Br765      Br  0.87483616  0.31578770  0.85592155    -0.00800
Br766      Br  0.93205223  0.31145360  0.77143135    -0.00780
C767        C  0.00161529  0.38533162  0.08513100    -0.01910
C768        C  0.99219304  0.35366477  0.05719384     0.07770
C769        C  0.02134618  0.32254113  0.04972702    -0.02020
C770        C  0.05823224  0.32198355  0.07150046    -0.02020
C771        C  0.06669027  0.35269134  0.10026232     0.07900
C772        C  0.03888199  0.38481396  0.10639019    -0.02220
Br773      Br  0.05125365  0.42713564  0.14551832    -0.00770
Br774      Br  0.96298709  0.42835668  0.09698212    -0.00840
Br775      Br  0.09760311  0.27902470  0.06206087    -0.00800
Br776      Br  0.01235800  0.28116084  0.00856799    -0.00780
C777        C  0.21085481  0.43101138  0.16273723    -0.01910
C778        C  0.20808864  0.39458468  0.14015883     0.07770
C779        C  0.24108325  0.38151486  0.11586415    -0.02020
C780        C  0.27738247  0.40431356  0.11495523    -0.02020
C781        C  0.28061643  0.44035675  0.13837787     0.07900
C782        C  0.24699064  0.45399528  0.16175784    -0.02220
Br783      Br  0.24985556  0.50464649  0.19179770    -0.00770
Br784      Br  0.16533180  0.44867641  0.19590736    -0.00840
Br785      Br  0.32345028  0.38435265  0.08389500    -0.00800
Br786      Br  0.23674450  0.33154989  0.08497770    -0.00780
C787        C  0.33598535  0.63908340  0.17121644    -0.01910
C788        C  0.32429117  0.60684938  0.14508652     0.07770
C789        C  0.28958137  0.61133574  0.11996423    -0.02020
C790        C  0.26666934  0.64761250  0.12125391    -0.02020
C791        C  0.27806761  0.67936492  0.14777015     0.07900
C792        C  0.31280964  0.67519305  0.17257161    -0.02220
Br793      Br  0.32819189  0.71902468  0.20880157    -0.00770
Br794      Br  0.38429374  0.63457027  0.20451999    -0.00840
Br795      Br  0.21865284  0.65351682  0.08780877    -0.00800
Br796      Br  0.27125038  0.56685143  0.08592754    -0.00780
C797        C  0.49558099  0.60113920  0.13010568    -0.01910
C798        C  0.49264399  0.56225573  0.14803858     0.07770
C799        C  0.52654248  0.54545977  0.16844349    -0.02020
C800        C  0.56317319  0.56757736  0.17104496    -0.02020
C801        C  0.56589191  0.60659568  0.15353097     0.07900
C802        C  0.53215432  0.62328961  0.13291967    -0.02220
Br803      Br  0.53613465  0.67666748  0.10867231    -0.00770
Br804      Br  0.44882514  0.62519661  0.10370838    -0.00840
Br805      Br  0.60934850  0.54504608  0.19967511    -0.00800
Br806      Br  0.52320835  0.49181973  0.19218870    -0.00780
C807        C  0.48464749  0.39122166  0.11861687    -0.01910
C808        C  0.44752456  0.39473966  0.14036695     0.07770
C809        C  0.43225385  0.36094662  0.16212230    -0.02020
C810        C  0.45459948  0.32435063  0.16314958    -0.02020
C811        C  0.49212075  0.32132437  0.14236895     0.07900
C812        C  0.50693150  0.35457228  0.11978505    -0.02220
Br813      Br  0.55848174  0.35001536  0.09148644    -0.00770
Br814      Br  0.50656405  0.43719720  0.08925559    -0.00840
Br815      Br  0.43458044  0.27858041  0.19409849    -0.00800
Br816      Br  0.38018294  0.36415615  0.18970167    -0.00780
C817        C  0.76490124  0.38645142  0.58905089    -0.01910
C818        C  0.73757812  0.39231620  0.55624084     0.07770
C819        C  0.70990936  0.36108796  0.54554762    -0.02020
C820        C  0.70899510  0.32476831  0.56812918    -0.02020
C821        C  0.73588898  0.31938196  0.60104471     0.07900
C822        C  0.76423352  0.34984621  0.61109203    -0.02220
Br823      Br  0.80097526  0.34184629  0.65634109    -0.00770
Br824      Br  0.80105881  0.42953908  0.60657159    -0.00840
Br825      Br  0.67063644  0.28228063  0.55446618    -0.00800
Br826      Br  0.67377410  0.36718421  0.49951516    -0.00780
C827        C  0.76855626  0.61534451  0.40940392    -0.01910
C828        C  0.74028309  0.60840771  0.44135830     0.07770
C829        C  0.71184510  0.63920106  0.45184202    -0.02020
C830        C  0.71064918  0.67572514  0.42952564    -0.02020
C831        C  0.73824698  0.68206159  0.39721895     0.07900
C832        C  0.76762386  0.65222878  0.38765125    -0.02220
Br833      Br  0.80547596  0.66145516  0.34341513    -0.00770
Br834      Br  0.80678833  0.57352599  0.39285297    -0.00840
Br835      Br  0.67087669  0.71722349  0.44274757    -0.00800
Br836      Br  0.67527673  0.63243736  0.49764460    -0.00780
C837        C  0.72055349  0.43514127  0.31890673    -0.01910
C838        C  0.73465582  0.39452205  0.31836487     0.07770
C839        C  0.75203444  0.37754942  0.35374667    -0.02020
C840        C  0.75428300  0.40068234  0.38984211    -0.02020
C841        C  0.73911941  0.44087345  0.39072799     0.07900
C842        C  0.72272531  0.45827144  0.35511491    -0.02220
Br843      Br  0.70374524  0.51395109  0.35595525    -0.00770
Br844      Br  0.69681245  0.45851919  0.27053326    -0.00840
Br845      Br  0.77629367  0.37649996  0.43867352    -0.00800
Br846      Br  0.77268965  0.32240910  0.35274418    -0.00780
C847        C  0.76590852  0.58587155  0.61725606    -0.01910
C848        C  0.73785317  0.55438304  0.60852928     0.07770
C849        C  0.70925893  0.54253306  0.63870588    -0.02020
C850        C  0.70728139  0.56359819  0.67621232    -0.02020
C851        C  0.73452420  0.59565234  0.68418009     0.07900
C852        C  0.76449430  0.60600208  0.65515085    -0.02220
Br853      Br  0.80244090  0.64953203  0.66674185    -0.00770
Br854      Br  0.80416397  0.60441068  0.57637082    -0.00840
Br855      Br  0.66664080  0.54962178  0.71644174    -0.00800
Br856      Br  0.67341944  0.49678663  0.62955932    -0.00780
C857        C  0.26792966  0.88483525  0.41168853    -0.01910
C858        C  0.27789004  0.85457806  0.44072193     0.07770
C859        C  0.25027758  0.82197475  0.44767264    -0.02020
C860        C  0.21338719  0.82007378  0.42609085    -0.02020
C861        C  0.20417336  0.84975285  0.39677889     0.07900
C862        C  0.23110410  0.88231374  0.38983953    -0.02220
Br863      Br  0.21814196  0.92239184  0.34887413    -0.00770
Br864      Br  0.30589698  0.92783342  0.39845342    -0.00840
Br865      Br  0.17492513  0.77665058  0.43652401    -0.00800
Br866      Br  0.26175191  0.77917251  0.48653422    -0.00780
C867        C  0.52844825  0.86594490  0.54247391    -0.01910
C868        C  0.49167648  0.85292421  0.56052372     0.07770
C869        C  0.49225839  0.83740156  0.60043230    -0.02020
C870        C  0.52679027  0.84300294  0.62477921    -0.02020
C871        C  0.56450382  0.85391105  0.60664289     0.07900
C872        C  0.56527408  0.86385739  0.56458026    -0.02220
Br873      Br  0.61620919  0.87067861  0.53553891    -0.00770
Br874      Br  0.52924047  0.88126026  0.48583773    -0.00840
Br875      Br  0.52031693  0.83850622  0.68330020    -0.00800
Br876      Br  0.44873591  0.80325424  0.62050691    -0.00780
C877        C  0.46908071  0.88659905  0.37951751    -0.01910
C878        C  0.44480810  0.85287774  0.39195313     0.07770
C879        C  0.44174873  0.81867178  0.36556865    -0.02020
C880        C  0.46454859  0.81714285  0.32907120    -0.02020
C881        C  0.49058216  0.84953281  0.31843716     0.07900
C882        C  0.49235713  0.88440355  0.34337916    -0.02220
Br883      Br  0.52865933  0.92849859  0.32900846    -0.00770
Br884      Br  0.47202078  0.93643130  0.41114428    -0.00840
Br885      Br  0.45965284  0.77080767  0.29285046    -0.00800
Br886      Br  0.40442241  0.77461476  0.37715634    -0.00780
C887        C  0.33979948  0.86821134  0.64348869    -0.01910
C888        C  0.32133571  0.86336318  0.60510900     0.07770
C889        C  0.27849196  0.86290606  0.60254889    -0.02020
C890        C  0.25459551  0.86269901  0.63827397    -0.02020
C891        C  0.27356027  0.86049781  0.67692704     0.07900
C892        C  0.31653970  0.86365191  0.67932517    -0.02220
Br893      Br  0.34463759  0.85858509  0.73074446    -0.00770
Br894      Br  0.39543629  0.88632682  0.64712765    -0.00840
Br895      Br  0.19593933  0.86756383  0.63391657    -0.00800
Br896      Br  0.25246033  0.86678733  0.55017477    -0.00780
C897        C  0.06344127  0.67277769  0.57605344    -0.01910
C898        C  0.03338562  0.68104336  0.60565068     0.07770
C899        C  0.00153111  0.65318262  0.61231371    -0.02020
C900        C  0.00071739  0.61600390  0.59077905    -0.02020
C901        C  0.03166196  0.60684886  0.56186159     0.07900
C902        C  0.06249818  0.63603590  0.55391898    -0.02220
Br903      Br  0.10306980  0.62717599  0.51182106    -0.00770
Br904      Br  0.10604173  0.71219698  0.56597427    -0.00840
Br905      Br  0.95856656  0.57698424  0.60375895    -0.00800
Br906      Br  0.96001580  0.66539317  0.65248551    -0.00780
C907        C  0.01069092  0.38074927  0.41499698    -0.01910
C908        C  0.03963461  0.39029025  0.44551204     0.07770
C909        C  0.07085458  0.36180025  0.45472582    -0.02020
C910        C  0.07406933  0.32523464  0.43234515    -0.02020
C911        C  0.04573364  0.31649831  0.40153147     0.07900
C912        C  0.01359002  0.34376556  0.39348489    -0.02220
Br913      Br  0.97445134  0.33104567  0.35129975    -0.00770
Br914      Br  0.96875605  0.41920761  0.39958166    -0.00840
Br915      Br  0.11760740  0.28713655  0.44307841    -0.00800
Br916      Br  0.10883581  0.37155874  0.49865090    -0.00780
C917        C  0.04849864  0.54074308  0.36107169    -0.01910
C918        C  0.03505182  0.55905053  0.39763416     0.07770
C919        C  0.02117206  0.59968522  0.39761436    -0.02020
C920        C  0.02159717  0.62230619  0.36128469    -0.02020
C921        C  0.03577117  0.60430444  0.32476745     0.07900
C922        C  0.04884679  0.56333428  0.32462421    -0.02220
Br923      Br  0.06880422  0.53868576  0.27490506    -0.00770
Br924      Br  0.06601473  0.48459783  0.36101942    -0.00840
Br925      Br  0.00274137  0.67809140  0.36151074    -0.00800
Br926      Br  0.00287478  0.62485552  0.44773001    -0.00780
C927        C  0.04594970  0.45529020  0.64634709    -0.01910
C928        C  0.03358273  0.43725903  0.60937806     0.07770
C929        C  0.02110035  0.39622283  0.60850456    -0.02020
C930        C  0.02218201  0.37285219  0.64431240    -0.02020
C931        C  0.03581556  0.39044580  0.68113084     0.07900
C932        C  0.04712549  0.43189697  0.68224677    -0.02220
Br933      Br  0.06596781  0.45614950  0.73246161    -0.00770
Br934      Br  0.06079364  0.51215043  0.64766857    -0.00840
Br935      Br  0.00497940  0.31659263  0.64294003    -0.00800
Br936      Br  0.00409080  0.37147696  0.55784149    -0.00780
loop_ 
_geom_bond_atom_site_label_1 
_geom_bond_atom_site_label_2 
_geom_bond_distance 
_geom_bond_site_symmetry_2 
_ccdc_geom_bond_type 
O1            V9   1.901       .  S
O1           C11   1.264       .  A
O2            V9   1.903       .  S
O2           C12   1.265       .  A
O3            V9   1.894       .  S
O3           C13   1.263       .  A
O4            V9   1.895       .  S
O4           C14   1.263       .  A
O5           V10   1.899       .  S
O5           C14   1.265       .  A
O6           V10   1.900       .  S
O6           C13   1.265       .  A
O7           V10   1.897       .  S
O7           C12   1.262       .  A
O8           V10   1.896       .  S
O8           C11   1.262       .  A
V9           V10   2.086       .  T
C11         C928   1.471       .  S
C12         C918   1.472       .  S
C13         C901   1.485       .  S
C14         C908   1.483       .  S
O15          V23   1.897       .  S
O15          C25   1.260       .  A
O16          V23   1.891       .  S
O16          C26   1.261       .  A
O17          V23   1.908       .  S
O17          C27   1.268       .  A
O18          V23   1.913       .  S
O18          C28   1.269       .  A
O19          V24   1.887       .  S
O19          C28   1.259       .  A
O20          V24   1.884       .  S
O20          C27   1.259       .  A
O21          V24   1.911       .  S
O21          C26   1.269       .  A
O22          V24   1.916       .  S
O22          C25   1.270       .  A
V23          V24   2.079       .  T
C25         C888   1.479       .  S
C26         C878   1.496       .  S
C27         C858   1.484       .  S
C28         C868   1.476       .  S
O29          V37   1.899       .  S
O29          C39   1.264       .  A
O30          V37   1.900       .  S
O30          C40   1.264       .  A
O31          V37   1.898       .  S
O31          C41   1.264       .  A
O32          V37   1.891       .  S
O32          C42   1.262       .  A
O33          V38   1.899       .  S
O33          C42   1.264       .  A
O34          V38   1.899       .  S
O34          C41   1.265       .  A
O35          V38   1.900       .  S
O35          C40   1.264       .  A
O36          V38   1.900       .  S
O36          C39   1.264       .  A
V37          V38   2.086       .  T
C39         C848   1.483       .  S
C40         C841   1.473       .  S
C41         C828   1.482       .  S
C42         C818   1.476       .  S
O43          V51   1.898       .  S
O43          C53   1.264       .  A
O44          V51   1.897       .  S
O44          C54   1.264       .  A
O45          V51   1.899       .  S
O45          C55   1.264       .  A
O46          V51   1.899       .  S
O46          C56   1.264       .  A
O47          V52   1.895       .  S
O47          C56   1.263       .  A
O48          V52   1.897       .  S
O48          C55   1.263       .  A
O49          V52   1.900       .  S
O49          C54   1.265       .  A
O50          V52   1.899       .  S
O50          C53   1.264       .  A
V51          V52   2.088       .  T
C53         C808   1.477       .  S
C54         C788   1.479       .  S
C55         C798   1.473       .  S
C56         C781   1.475       .  S
C57         C778   1.473       .  S
C57          C58   1.400       .  A
C57          C62   1.403       .  A
C58          C59   1.399       .  A
C58          H63   1.084       .  S
C59         C448   1.471       .  S
C59          C60   1.399       .  A
C60          C61   1.401       .  A
C60          H64   1.084       .  S
C61         C771   1.476       .  S
C61          C62   1.403       .  A
C62          H65   1.084       .  S
C66         C758   1.479   1_455  S
C66          C67   1.405       .  A
C66          C71   1.403       .  A
C67          C68   1.404       .  A
C67          H72   1.084   1_455  S
C68         C931   1.479       .  S
C68          C69   1.401       .  A
C69          C70   1.399       .  A
C69          H73   1.084       .  S
C70         C425   1.471       .  S
C70          C71   1.400       .  A
C71          H74   1.084       .  S
C75         C748   1.483       .  S
C75          C76   1.402       .  A
C75          C80   1.406       .  A
C76          C77   1.398       .  A
C76          H81   1.084       .  S
C77         C385   1.472       .  S
C77          C78   1.400       .  A
C78          C79   1.403       .  A
C78          H82   1.084       .  S
C79         C838   1.479       .  S
C79          C80   1.405       .  A
C80          H83   1.084       .  S
O84          V92   1.902   1_554  S
O84          C94   1.264       .  A
O85          V92   1.902       .  S
O85          C95   1.264       .  A
O86          V92   1.896   1_554  S
O86          C96   1.264       .  A
O87          V92   1.898       .  S
O87          C97   1.263       .  A
O88          V93   1.899       .  S
O88          C97   1.265       .  A
O89          V93   1.900   1_554  S
O89          C96   1.264       .  A
O90          V93   1.897       .  S
O90          C95   1.263       .  A
O91          V93   1.897   1_554  S
O91          C94   1.262       .  A
V92          V93   2.085       .  T
C94         C751   1.470       .  S
C95         C761   1.472       .  S
C96         C768   1.486       .  S
C97         C738   1.487       .  S
C98         C801   1.475       .  S
C98          C99   1.400       .  A
C98         C103   1.402       .  A
C99         C100   1.400       .  A
C99         H104   1.084       .  S
C100        C396   1.473       .  S
C100        C101   1.401       .  A
C101        C102   1.402       .  A
C101        H105   1.084       .  S
C102        C731   1.477       .  S
C102        C103   1.403       .  A
C103        H106   1.084       .  S
C107        C851   1.476       .  S
C107        C108   1.397       .  A
C107        C112   1.408       .  A
C108        C109   1.391       .  A
C108        H113   1.084       .  S
C109        C441   1.466       .  S
C109        C110   1.396       .  A
C110        C111   1.409       .  A
C110        H114   1.081       .  S
C111        C718   1.510       .  S
C111        C112   1.416       .  A
C112        H115   1.079       .  S
C116        C921   1.479       .  S
C116        C117   1.401       .  A
C116        C121   1.405       .  A
C117        C118   1.400       .  A
C117        H122   1.084       .  S
C118        C403   1.471       .  S
C118        C119   1.399       .  A
C119        C120   1.401       .  A
C119        H123   1.084       .  S
C120        C708   1.477   1_455  S
C120        C121   1.405       .  A
C121        H124   1.084   1_455  S
O125        V133   1.904       .  S
O125        C135   1.264       .  A
O126        V133   1.906   1_556  S
O126        C136   1.266       .  A
O127        V133   1.897       .  S
O127        C137   1.263       .  A
O128        V133   1.902   1_556  S
O128        C138   1.264       .  A
O129        V134   1.904   1_556  S
O129        C138   1.266       .  A
O130        V134   1.902       .  S
O130        C137   1.266       .  A
O131        V134   1.901   1_556  S
O131        C136   1.262       .  A
O132        V134   1.903       .  S
O132        C135   1.265       .  A
V133        V134   2.085       .  T
C135        C728   1.478       .  S
C136        C698   1.476       .  S
C137        C711   1.489       .  S
C138        C721   1.493       .  S
C139        C688   1.501       .  S
C139        C140   1.412       .  A
C139        C144   1.408       .  A
C140        C141   1.406       .  A
C140        H145   1.082       .  S
C141        C741   1.476       .  S
C141        C142   1.397       .  A
C142        C143   1.394       .  A
C142        H146   1.084       .  S
C143        C434   1.468       .  S
C143        C144   1.397       .  A
C144        H147   1.083       .  S
C148        C678   1.502       .  S
C148        C149   1.406       .  A
C148        C153   1.415       .  A
C149        C150   1.394       .  A
C149        H154   1.083       .  S
C150        C414   1.465       .  S
C150        C151   1.392       .  A
C151        C152   1.401       .  A
C151        H155   1.085       .  S
C152        C701   1.488       .  S
C152        C153   1.410       .  A
C153        H156   1.080       .  S
O157        V165   1.899       .  S
O157        C167   1.264       .  A
O158        V165   1.900       .  S
O158        C168   1.265       .  A
O159        V165   1.902       .  S
O159        C169   1.264       .  A
O160        V165   1.900       .  S
O160        C170   1.264       .  A
O161        V166   1.904       .  S
O161        C170   1.265       .  A
O162        V166   1.907       .  S
O162        C169   1.265       .  A
O163        V166   1.900       .  S
O163        C168   1.264       .  A
O164        V166   1.900       .  S
O164        C167   1.264       .  A
V165        V166   2.088       .  T
C167        C691   1.478       .  S
C168        C681   1.477       .  S
C169        C668   1.480       .  S
C170        C658   1.477       .  S
C171        C811   1.475       .  S
C171        C172   1.400       .  A
C171        C176   1.404       .  A
C172        C173   1.399       .  A
C172        H177   1.084       .  S
C173        C387   1.474       .  S
C173        C174   1.401       .  A
C174        C175   1.403       .  A
C174        H178   1.084       .  S
C175        C651   1.480       .  S
C175        C176   1.405       .  A
C176        H179   1.084       .  S
C180        C641   1.479       .  S
C180        C181   1.405       .  A
C180        C185   1.400       .  A
C181        C182   1.411       .  A
C181        H186   1.083       .  S
C182        C671   1.499       .  S
C182        C183   1.408       .  A
C183        C184   1.400       .  A
C183        H187   1.083       .  S
C184        C439   1.473       .  S
C184        C185   1.398       .  A
C185        H188   1.084       .  S
C189        C881   1.482       .  S
C189        C190   1.402       .  A
C189        C194   1.407       .  A
C190        C191   1.400       .  A
C190        H195   1.084       .  S
C191        C394   1.473       .  S
C191        C192   1.401       .  A
C192        C193   1.402       .  A
C192        H196   1.084       .  S
C193        C628   1.479       .  S
C193        C194   1.405       .  A
C194        H197   1.084       .  S
O198        V206   1.901   1_554  S
O198        C208   1.264       .  A
O199        V206   1.897   1_545  S
O199        C209   1.263       .  A
O200        V206   1.901       .  S
O200        C210   1.265       .  A
O201        V206   1.905   1_544  S
O201        C211   1.266       .  A
O202        V207   1.895   1_544  S
O202        C211   1.263       .  A
O203        V207   1.899       .  S
O203        C210   1.264       .  A
O204        V207   1.906   1_545  S
O204        C209   1.266       .  A
O205        V207   1.901   1_554  S
O205        C208   1.265       .  A
V206        V207   2.085       .  T
C208        C631   1.478       .  S
C209        C621   1.486       .  S
C210        C638   1.478       .  S
C211        C648   1.491       .  S
C212        C611   1.483       .  S
C212        C213   1.406       .  A
C212        C217   1.405       .  A
C213        C214   1.404       .  A
C213        H218   1.084       .  S
C214        C791   1.476       .  S
C214        C215   1.399       .  A
C215        C216   1.400       .  A
C215        H219   1.084       .  S
C216        C405   1.474       .  S
C216        C217   1.401       .  A
C217        H220   1.084       .  S
C221        C661   1.501       .  S
C221        C222   1.408       .  A
C221        C226   1.412       .  A
C222        C223   1.398       .  A
C222        H227   1.083       .  S
C223        C423   1.472       .  S
C223        C224   1.396       .  A
C224        C225   1.400       .  A
C224        H228   1.084       .  S
C225        C598   1.480       .  S
C225        C226   1.408       .  A
C226        H229   1.082       .  S
C230        C891   1.489       .  S
C230        C231   1.405       .  A
C230        C235   1.408       .  A
C231        C232   1.399       .  A
C231        H236   1.084       .  S
C232        C416   1.472       .  S
C232        C233   1.399       .  A
C233        C234   1.399       .  A
C233        H237   1.084       .  S
C234        C588   1.476       .  S
C234        C235   1.404       .  A
C235        H238   1.083       .  S
O239        V247   1.900   1_566  S
O239        C249   1.265       .  A
O240        V247   1.899       .  S
O240        C250   1.264       .  A
O241        V247   1.903   1_556  S
O241        C251   1.266       .  A
O242        V247   1.901   1_565  S
O242        C252   1.265       .  A
O243        V248   1.901   1_565  S
O243        C252   1.265       .  A
O244        V248   1.898   1_556  S
O244        C251   1.264       .  A
O245        V248   1.898       .  S
O245        C250   1.264       .  A
O246        V248   1.899   1_566  S
O246        C249   1.264       .  A
V247        V248   2.079       .  T
C249        C591   1.481       .  S
C250        C578   1.474       .  S
C251        C601   1.494       .  S
C252        C608   1.494       .  S
C253        C871   1.492       .  S
C253        C254   1.410       .  A
C253        C258   1.404       .  A
C254        C255   1.405       .  A
C254        H259   1.083       .  S
C255        C568   1.472       .  S
C255        C256   1.398       .  A
C256        C257   1.393       .  A
C256        H260   1.084       .  S
C257        C443   1.464       .  S
C257        C258   1.394       .  A
C258        H261   1.084       .  S
C262        C821   1.470       .  S
C262        C263   1.399       .  A
C262        C267   1.402       .  A
C263        C264   1.398       .  A
C263        H268   1.084       .  S
C264        C432   1.467       .  S
C264        C265   1.399       .  A
C265        C266   1.399       .  A
C265        H269   1.084       .  S
C266        C561   1.470       .  S
C266        C267   1.402       .  A
C267        H270   1.084       .  S
C271        C898   1.475       .  S
C271        C272   1.403       .  A
C271        C276   1.401       .  A
C272        C273   1.403       .  A
C272        H277   1.084   1_455  S
C273        C548   1.474   1_455  S
C273        C274   1.401       .  A
C274        C275   1.400       .  A
C274        H278   1.084       .  S
C275        C412   1.472       .  S
C275        C276   1.399       .  A
C276        H279   1.084       .  S
O280        V288   1.897   1_565  S
O280        C290   1.263       .  A
O281        V288   1.893       .  S
O281        C291   1.263       .  A
O282        V288   1.896       .  S
O282        C292   1.263       .  A
O283        V288   1.894   1_565  S
O283        C293   1.263       .  A
O284        V289   1.897   1_565  S
O284        C293   1.263       .  A
O285        V289   1.896       .  S
O285        C292   1.263       .  A
O286        V289   1.897       .  S
O286        C291   1.264       .  A
O287        V289   1.898   1_565  S
O287        C290   1.264       .  A
V288        V289   2.089       .  T
C290        C551   1.478       .  S
C291        C558   1.473       .  S
C292        C538   1.470       .  S
C293        C571   1.473       .  S
C294        C618   1.480       .  S
C294        C295   1.402       .  A
C294        C299   1.406       .  A
C295        C296   1.401       .  A
C295        H300   1.084       .  S
C296        C430   1.473       .  S
C296        C297   1.400       .  A
C297        C298   1.400       .  A
C297        H301   1.084       .  S
C298        C531   1.477       .  S
C298        C299   1.405       .  A
C299        H302   1.084       .  S
C303        C518   1.479       .  S
C303        C304   1.403       .  A
C303        C308   1.404       .  A
C304        C305   1.403       .  A
C304        H309   1.084       .  S
C305        C581   1.475       .  S
C305        C306   1.401       .  A
C306        C307   1.400       .  A
C306        H310   1.084       .  S
C307        C450   1.475       .  S
C307        C308   1.403       .  A
C308        H311   1.084       .  S
C312        C508   1.470       .  S
C312        C313   1.399       .  A
C312        C317   1.401       .  A
C313        C314   1.398       .  A
C313        H318   1.084       .  S
C314        C421   1.470       .  S
C314        C315   1.401       .  A
C315        C316   1.401       .  A
C315        H319   1.084       .  S
C316        C541   1.473       .  S
C316        C317   1.402       .  A
C317        H320   1.084       .  S
O321        V329   1.896       .  S
O321        C331   1.264       .  A
O322        V329   1.899       .  S
O322        C332   1.264       .  A
O323        V329   1.898       .  S
O323        C333   1.264       .  A
O324        V329   1.899       .  S
O324        C334   1.264       .  A
O325        V330   1.902       .  S
O325        C334   1.265       .  A
O326        V330   1.903       .  S
O326        C333   1.265       .  A
O327        V330   1.893       .  S
O327        C332   1.262       .  A
O328        V330   1.893       .  S
O328        C331   1.262       .  A
V329        V330   2.088       .  T
C331        C511   1.469       .  S
C332        C501   1.472       .  S
C333        C521   1.484       .  S
C334        C528   1.480       .  S
C335        C491   1.472       .  S
C335        C336   1.401       .  A
C335        C340   1.401       .  A
C336        C337   1.401       .  A
C336        H341   1.084       .  S
C337        C861   1.472       .  S
C337        C338   1.401       .  A
C338        C339   1.399       .  A
C338        H342   1.084       .  S
C339        C407   1.473       .  S
C339        C340   1.401       .  A
C340        H343   1.084       .  S
C344        C831   1.476       .  S
C344        C345   1.401       .  A
C344        C349   1.404       .  A
C345        C346   1.401       .  A
C345        H350   1.084       .  S
C346        C398   1.473       .  S
C346        C347   1.400       .  A
C347        C348   1.401       .  A
C347        H351   1.084       .  S
C348        C478   1.475       .  S
C348        C349   1.404       .  A
C349        H352   1.084       .  S
C353        C468   1.475       .  S
C353        C354   1.401       .  A
C353        C358   1.403       .  A
C354        C355   1.398       .  A
C354        H359   1.084       .  S
C355        C389   1.469       .  S
C355        C356   1.398       .  A
C356        C357   1.400       .  A
C356        H360   1.084       .  S
C357        C498   1.472       .  S
C357        C358   1.403       .  A
C358        H361   1.084       .  S
C362        C911   1.473       .  S
C362        C363   1.396       .  A
C362        C367   1.405       .  A
C363        C364   1.392       .  A
C363        H368   1.084       .  S
C364        C452   1.466       .  S
C364        C365   1.396       .  A
C365        C366   1.409       .  A
C365        H369   1.082       .  S
C366        C458   1.507       .  S
C366        C367   1.413       .  A
C367        H370   1.078       .  S
O371        V379   1.897       .  S
O371        C381   1.262       .  A
O372        V379   1.896   1_565  S
O372        C382   1.263       .  A
O373        V379   1.907   1_565  S
O373        C383   1.266       .  A
O374        V379   1.907       .  S
O374        C384   1.267       .  A
O375        V380   1.898       .  S
O375        C384   1.262       .  A
O376        V380   1.896   1_565  S
O376        C383   1.263       .  A
O377        V380   1.901   1_565  S
O377        C382   1.265       .  A
O378        V380   1.908       .  S
O378        C381   1.267       .  A
V379        V380   2.085       .  T
C381        C461   1.494       .  S
C382        C481   1.477       .  S
C383        C488   1.489       .  S
C384        C471   1.477       .  S
C385        C386   1.403       .  A
C385        C390   1.401       .  A
C386        C387   1.403       .  A
C386        H391   1.084       .  S
C387        C388   1.401       .  A
C388        C389   1.401       .  A
C388        H392   1.084       .  S
C389        C390   1.402       .  A
C390        H393   1.084       .  S
C394        C395   1.402       .  A
C394        C399   1.403       .  A
C395        C396   1.402       .  A
C395        H400   1.084       .  S
C396        C397   1.401       .  A
C397        C398   1.401       .  A
C397        H401   1.084       .  S
C398        C399   1.403       .  A
C399        H402   1.084       .  S
C403        C404   1.401       .  A
C403        C408   1.400       .  A
C404        C405   1.403       .  A
C404        H409   1.084       .  S
C405        C406   1.403       .  A
C406        C407   1.404       .  A
C406        H410   1.084       .  S
C407        C408   1.400       .  A
C408        H411   1.085       .  S
C412        C413   1.402       .  A
C412        C417   1.403       .  A
C413        C414   1.399       .  A
C413        H418   1.084       .  S
C414        C415   1.400       .  A
C415        C416   1.398       .  A
C415        H419   1.084       .  S
C416        C417   1.402       .  A
C417        H420   1.084       .  S
C421        C422   1.404       .  A
C421        C426   1.401       .  A
C422        C423   1.400       .  A
C422        H427   1.084       .  S
C423        C424   1.403       .  A
C424        C425   1.400       .  A
C424        H428   1.084       .  S
C425        C426   1.399       .  A
C426        H429   1.084       .  S
C430        C431   1.400       .  A
C430        C435   1.401       .  A
C431        C432   1.401       .  A
C431        H436   1.084       .  S
C432        C433   1.401       .  A
C433        C434   1.398       .  A
C433        H437   1.084       .  S
C434        C435   1.403       .  A
C435        H438   1.084       .  S
C439        C440   1.400       .  A
C439        C444   1.397       .  A
C440        C441   1.403       .  A
C440        H445   1.084       .  S
C441        C442   1.398       .  A
C442        C443   1.400       .  A
C442        H446   1.084       .  S
C443        C444   1.404       .  A
C444        H447   1.084       .  S
C448        C449   1.405       .  A
C448        C453   1.403       .  A
C449        C450   1.402       .  A
C449        H454   1.084       .  S
C450        C451   1.399       .  A
C451        C452   1.402       .  A
C451        H455   1.084       .  S
C452        C453   1.397       .  A
C453        H456   1.084       .  S
C457        C458   1.419       .  A
C457        C462   1.400   1_455  A
C457       Br464   1.938       .  S
C458        C459   1.422   1_455  A
C459        C460   1.410       .  A
C459       Br466   1.933       .  S
C460        C461   1.418       .  A
C460       Br465   1.930       .  S
C461        C462   1.411       .  A
C462       Br463   1.921       .  S
C467        C468   1.406       .  A
C467        C472   1.402       .  A
C467       Br474   1.934       .  S
C468        C469   1.409       .  A
C469        C470   1.410       .  A
C469       Br476   1.930       .  S
C470        C471   1.412       .  A
C470       Br475   1.929   1_545  S
C471        C472   1.408       .  A
C472       Br473   1.916       .  S
C477        C478   1.408       .  A
C477        C482   1.407       .  A
C477       Br484   1.930       .  S
C478        C479   1.407       .  A
C479        C480   1.407       .  A
C479       Br486   1.931       .  S
C480        C481   1.413       .  A
C480       Br485   1.931       .  S
C481        C482   1.412       .  A
C482       Br483   1.932       .  S
C487        C488   1.417   1_455  A
C487        C492   1.402       .  A
C487       Br494   1.919       .  S
C488        C489   1.418       .  A
C489        C490   1.411   1_655  A
C489       Br496   1.932       .  S
C490        C491   1.406       .  A
C490       Br495   1.930       .  S
C491        C492   1.402       .  A
C492       Br493   1.938       .  S
C497        C498   1.408       .  A
C497        C502   1.407       .  A
C497       Br504   1.931       .  S
C498        C499   1.406       .  A
C499        C500   1.404       .  A
C499       Br506   1.931       .  S
C500        C501   1.412       .  A
C500       Br505   1.932       .  S
C501        C502   1.411       .  A
C502       Br503   1.931       .  S
C507        C508   1.408       .  A
C507        C512   1.405       .  A
C507       Br514   1.931       .  S
C508        C509   1.407       .  A
C509        C510   1.404       .  A
C509       Br516   1.931       .  S
C510        C511   1.410       .  A
C510       Br515   1.931       .  S
C511        C512   1.410       .  A
C512       Br513   1.931       .  S
C517        C518   1.408       .  A
C517        C522   1.408       .  A
C517       Br524   1.932       .  S
C518        C519   1.407       .  A
C519        C520   1.409       .  A
C519       Br526   1.931       .  S
C520        C521   1.416       .  A
C520       Br525   1.932       .  S
C521        C522   1.415       .  A
C522       Br523   1.932       .  S
C527        C528   1.414       .  A
C527        C532   1.408       .  A
C527       Br534   1.932       .  S
C528        C529   1.413       .  A
C529        C530   1.408       .  A
C529       Br536   1.931       .  S
C530        C531   1.407       .  A
C530       Br535   1.930       .  S
C531        C532   1.408       .  A
C532       Br533   1.931       .  S
C537        C538   1.411       .  A
C537        C542   1.405   1_655  A
C537       Br544   1.931       .  S
C538        C539   1.410   1_655  A
C539        C540   1.406       .  A
C539       Br546   1.931   1_545  S
C540        C541   1.408       .  A
C540       Br545   1.931       .  S
C541        C542   1.408       .  A
C542       Br543   1.931       .  S
C547        C548   1.407       .  A
C547        C552   1.406       .  A
C547       Br554   1.931       .  S
C548        C549   1.406   1_655  A
C549        C550   1.407   1_455  A
C549       Br556   1.931       .  S
C550        C551   1.414       .  A
C550       Br555   1.932   1_655  S
C551        C552   1.413       .  A
C552       Br553   1.932       .  S
C557        C558   1.413       .  A
C557        C562   1.404       .  A
C557       Br564   1.933       .  S
C558        C559   1.412       .  A
C559        C560   1.406       .  A
C559       Br566   1.931       .  S
C560        C561   1.407       .  A
C560       Br565   1.931       .  S
C561        C562   1.406       .  A
C562       Br563   1.931       .  S
C567        C568   1.406       .  A
C567        C572   1.408       .  A
C567       Br574   1.929       .  S
C568        C569   1.408       .  A
C569        C570   1.403       .  A
C569       Br576   1.933       .  S
C570        C571   1.410       .  A
C570       Br575   1.933       .  S
C571        C572   1.413       .  A
C572       Br573   1.931   1_565  S
C577        C578   1.412       .  A
C577        C582   1.406       .  A
C577       Br584   1.931       .  S
C578        C579   1.411       .  A
C579        C580   1.408       .  A
C579       Br586   1.931   1_545  S
C580        C581   1.409       .  A
C580       Br585   1.930       .  S
C581        C582   1.407       .  A
C582       Br583   1.931       .  S
C587        C588   1.407       .  A
C587        C592   1.407       .  A
C587       Br594   1.931       .  S
C588        C589   1.407       .  A
C589        C590   1.408       .  A
C589       Br596   1.931       .  S
C590        C591   1.414       .  A
C590       Br595   1.931   1_565  S
C591        C592   1.414       .  A
C592       Br593   1.933       .  S
C597        C598   1.407       .  A
C597        C602   1.409       .  A
C597       Br604   1.932       .  S
C598        C599   1.406       .  A
C599        C600   1.410       .  A
C599       Br606   1.933       .  S
C600        C601   1.421       .  A
C600       Br605   1.934       .  S
C601        C602   1.421       .  A
C602       Br603   1.936       .  S
C607        C608   1.421       .  A
C607        C612   1.410       .  A
C607       Br614   1.934       .  S
C608        C609   1.419       .  A
C609        C610   1.409       .  A
C609       Br616   1.935       .  S
C610        C611   1.409       .  A
C610       Br615   1.934       .  S
C611        C612   1.408       .  A
C612       Br613   1.933       .  S
C617        C618   1.409       .  A
C617        C622   1.409       .  A
C617       Br624   1.932       .  S
C618        C619   1.406       .  A
C619        C620   1.409       .  A
C619       Br626   1.932       .  S
C620        C621   1.417       .  A
C620       Br625   1.933       .  S
C621        C622   1.415       .  A
C622       Br623   1.932       .  S
C627        C628   1.409       .  A
C627        C632   1.408       .  A
C627       Br634   1.930       .  S
C628        C629   1.408       .  A
C629        C630   1.408       .  A
C629       Br636   1.930       .  S
C630        C631   1.412       .  A
C630       Br635   1.931       .  S
C631        C632   1.411       .  A
C632       Br633   1.931   1_565  S
C637        C638   1.413       .  A
C637        C642   1.409       .  A
C637       Br644   1.930   1_556  S
C638        C639   1.411       .  A
C639        C640   1.407       .  A
C639       Br646   1.932       .  S
C640        C641   1.410       .  A
C640       Br645   1.932       .  S
C641        C642   1.408       .  A
C642       Br643   1.929       .  S
C647        C648   1.419       .  A
C647        C652   1.407       .  A
C647       Br654   1.935       .  S
C648        C649   1.419       .  A
C649        C650   1.410       .  A
C649       Br656   1.933       .  S
C650        C651   1.407       .  A
C650       Br655   1.932       .  S
C651        C652   1.407       .  A
C652       Br653   1.935       .  S
C657        C658   1.408       .  A
C657        C662   1.411       .  A
C657       Br664   1.931       .  S
C658        C659   1.406       .  A
C659        C660   1.405       .  A
C659       Br666   1.930       .  S
C660        C661   1.420       .  A
C660       Br665   1.935       .  S
C661        C662   1.420       .  A
C662       Br663   1.930       .  S
C667        C668   1.407       .  A
C667        C672   1.406       .  A
C667       Br674   1.929       .  S
C668        C669   1.408       .  A
C669        C670   1.411       .  A
C669       Br676   1.928       .  S
C670        C671   1.420       .  A
C670       Br675   1.933       .  S
C671        C672   1.419       .  A
C672       Br673   1.935       .  S
C677        C678   1.420       .  A
C677        C682   1.411       .  A
C677       Br684   1.932       .  S
C678        C679   1.422       .  A
C679        C680   1.403       .  A
C679       Br686   1.937       .  S
C680        C681   1.405       .  A
C680       Br685   1.932       .  S
C681        C682   1.411       .  A
C682       Br683   1.930       .  S
C687        C688   1.420       .  A
C687        C692   1.404       .  A
C687       Br694   1.937       .  S
C688        C689   1.422       .  A
C689        C690   1.410       .  A
C689       Br696   1.932       .  S
C690        C691   1.410       .  A
C690       Br695   1.932       .  S
C691        C692   1.408       .  A
C692       Br693   1.933       .  S
C697        C698   1.410   1_455  A
C697        C702   1.414       .  A
C697       Br704   1.928   1_556  S
C698        C699   1.403       .  A
C699        C700   1.400   1_655  A
C699       Br706   1.922       .  S
C700        C701   1.415       .  A
C700       Br705   1.937       .  S
C701        C702   1.415       .  A
C702       Br703   1.929       .  S
C707        C708   1.405   1_455  A
C707        C712   1.408   1_455  A
C707       Br714   1.932       .  S
C708        C709   1.406       .  A
C709        C710   1.408       .  A
C709       Br716   1.932       .  S
C710        C711   1.418       .  A
C710       Br715   1.934       .  S
C711        C712   1.420       .  A
C712       Br713   1.934       .  S
C717        C718   1.421       .  A
C717        C722   1.401       .  A
C717       Br724   1.937       .  S
C718        C719   1.422       .  A
C719        C720   1.413       .  A
C719       Br726   1.933       .  S
C720        C721   1.418       .  A
C720       Br725   1.933       .  S
C721        C722   1.411       .  A
C722       Br723   1.932       .  S
C727        C728   1.410       .  A
C727        C732   1.409       .  A
C727       Br734   1.929       .  S
C728        C729   1.408       .  A
C729        C730   1.405       .  A
C729       Br736   1.916   1_554  S
C730        C731   1.408       .  A
C730       Br735   1.933       .  S
C731        C732   1.410       .  A
C732       Br733   1.929       .  S
C737        C738   1.417       .  A
C737        C742   1.406       .  A
C737       Br744   1.935       .  S
C738        C739   1.420       .  A
C739        C740   1.409       .  A
C739       Br746   1.933       .  S
C740        C741   1.405       .  A
C740       Br745   1.932       .  S
C741        C742   1.407       .  A
C742       Br743   1.933       .  S
C747        C748   1.414       .  A
C747        C752   1.409       .  A
C747       Br754   1.931       .  S
C748        C749   1.413       .  A
C749        C750   1.405       .  A
C749       Br756   1.933       .  S
C750        C751   1.407       .  A
C750       Br755   1.930       .  S
C751        C752   1.407       .  A
C752       Br753   1.930       .  S
C757        C758   1.410   1_455  A
C757        C762   1.406   1_455  A
C757       Br764   1.932       .  S
C758        C759   1.411       .  A
C759        C760   1.409       .  A
C759       Br766   1.930       .  S
C760        C761   1.408       .  A
C760       Br765   1.930       .  S
C761        C762   1.409       .  A
C762       Br763   1.930   1_655  S
C767        C768   1.418   1_455  A
C767        C772   1.408       .  A
C767       Br774   1.933   1_455  S
C768        C769   1.418   1_655  A
C769        C770   1.406       .  A
C769       Br776   1.935       .  S
C770        C771   1.406       .  A
C770       Br775   1.934       .  S
C771        C772   1.406       .  A
C772       Br773   1.932       .  S
C777        C778   1.407       .  A
C777        C782   1.406       .  A
C777       Br784   1.931       .  S
C778        C779   1.407       .  A
C779        C780   1.407       .  A
C779       Br786   1.930       .  S
C780        C781   1.413       .  A
C780       Br785   1.931       .  S
C781        C782   1.412       .  A
C782       Br783   1.932       .  S
C787        C788   1.413       .  A
C787        C792   1.407       .  A
C787       Br794   1.932       .  S
C788        C789   1.414       .  A
C789        C790   1.407       .  A
C789       Br796   1.932       .  S
C790        C791   1.407       .  A
C790       Br795   1.931       .  S
C791        C792   1.408       .  A
C792       Br793   1.931       .  S
C797        C798   1.411       .  A
C797        C802   1.406       .  A
C797       Br804   1.931       .  S
C798        C799   1.411       .  A
C799        C800   1.407       .  A
C799       Br806   1.931       .  S
C800        C801   1.408       .  A
C800       Br805   1.931       .  S
C801        C802   1.409       .  A
C802       Br803   1.931       .  S
C807        C808   1.413       .  A
C807        C812   1.407       .  A
C807       Br814   1.931       .  S
C808        C809   1.413       .  A
C809        C810   1.407       .  A
C809       Br816   1.932       .  S
C810        C811   1.407       .  A
C810       Br815   1.931       .  S
C811        C812   1.407       .  A
C812       Br813   1.931       .  S
C817        C818   1.415       .  A
C817        C822   1.405       .  A
C817       Br824   1.933       .  S
C818        C819   1.414       .  A
C819        C820   1.406       .  A
C819       Br826   1.932       .  S
C820        C821   1.407       .  A
C820       Br825   1.932       .  S
C821        C822   1.405       .  A
C822       Br823   1.932       .  S
C827        C828   1.416       .  A
C827        C832   1.408       .  A
C827       Br834   1.933       .  S
C828        C829   1.415       .  A
C829        C830   1.407       .  A
C829       Br836   1.932       .  S
C830        C831   1.407       .  A
C830       Br835   1.931       .  S
C831        C832   1.406       .  A
C832       Br833   1.931       .  S
C837        C838   1.411       .  A
C837        C842   1.409       .  A
C837       Br844   1.930       .  S
C838        C839   1.410       .  A
C839        C840   1.406       .  A
C839       Br846   1.932       .  S
C840        C841   1.409       .  A
C840       Br845   1.931       .  S
C841        C842   1.409       .  A
C842       Br843   1.930       .  S
C847        C848   1.414       .  A
C847        C852   1.406       .  A
C847       Br854   1.933       .  S
C848        C849   1.417       .  A
C849        C850   1.410       .  A
C849       Br856   1.931       .  S
C850        C851   1.405       .  A
C850       Br855   1.929       .  S
C851        C852   1.409       .  A
C852       Br853   1.933       .  S
C857        C858   1.417       .  A
C857        C862   1.408       .  A
C857       Br864   1.933       .  S
C858        C859   1.421       .  A
C859        C860   1.404       .  A
C859       Br866   1.937       .  S
C860        C861   1.404       .  A
C860       Br865   1.935       .  S
C861        C862   1.406       .  A
C862       Br863   1.931       .  S
C867        C868   1.409       .  A
C867        C872   1.411       .  A
C867       Br874   1.926       .  S
C868        C869   1.406       .  A
C869        C870   1.399       .  A
C869       Br876   1.931       .  S
C870        C871   1.417       .  A
C870       Br875   1.936       .  S
C871        C872   1.419       .  A
C872       Br873   1.933       .  S
C877        C878   1.424       .  A
C877        C882   1.409       .  A
C877       Br884   1.936       .  S
C878        C879   1.419       .  A
C879        C880   1.410       .  A
C879       Br886   1.934       .  S
C880        C881   1.409       .  A
C880       Br885   1.933       .  S
C881        C882   1.406       .  A
C882       Br883   1.934       .  S
C887        C888   1.407       .  A
C887        C892   1.407       .  A
C887       Br894   1.923       .  S
C888        C889   1.407       .  A
C889        C890   1.407       .  A
C889       Br896   1.924       .  S
C890        C891   1.415       .  A
C890       Br895   1.935       .  S
C891        C892   1.415       .  A
C892       Br893   1.931       .  S
C897        C898   1.406       .  A
C897        C902   1.406       .  A
C897       Br904   1.934       .  S
C898        C899   1.406       .  A
C899        C900   1.408       .  A
C899       Br906   1.932   1_455  S
C900        C901   1.418       .  A
C900       Br905   1.933   1_455  S
C901        C902   1.418       .  A
C902       Br903   1.935       .  S
C907        C908   1.415       .  A
C907        C912   1.405       .  A
C907       Br914   1.934   1_455  S
C908        C909   1.419       .  A
C909        C910   1.408       .  A
C909       Br916   1.933       .  S
C910        C911   1.403       .  A
C910       Br915   1.930       .  S
C911        C912   1.408       .  A
C912       Br913   1.934   1_455  S
C917        C918   1.408       .  A
C917        C922   1.409       .  A
C917       Br924   1.930       .  S
C918        C919   1.409       .  A
C919        C920   1.406       .  A
C919       Br926   1.930       .  S
C920        C921   1.410       .  A
C920       Br925   1.932       .  S
C921        C922   1.411       .  A
C922       Br923   1.929       .  S
C927        C928   1.408       .  A
C927        C932   1.408       .  A
C927       Br934   1.930       .  S
C928        C929   1.409       .  A
C929        C930   1.405       .  A
C929       Br936   1.931       .  S
C930        C931   1.410       .  A
C930       Br935   1.932       .  S
C931        C932   1.411       .  A
C932       Br933   1.930       .  S
