geometry optimzed in LAMMPS
_audit_creation_date              2020-11-30 
_audit_creation_method            'lammps2cif' 
_symmetry_space_group_name_H-M    'P1' 
_symmetry_Int_Tables_number       1 
_symmetry_cell_setting            triclinic 
loop_ 
_symmetry_equiv_pos_as_xyz 
  x,y,z 
_cell_length_a                    64.24738082 
_cell_length_b                    64.55145501328579 
_cell_length_c                    64.674437769312 
_cell_angle_alpha                 90.20619862091009 
_cell_angle_beta                  90.11982875601312 
_cell_angle_gamma                 89.99942189817182 
loop_ 
_atom_site_label 
_atom_site_type_symbol 
_atom_site_fract_x 
_atom_site_fract_y 
_atom_site_fract_z 
_atom_site_charge 
O1          O  0.60716863  0.66810901  0.64796132    -0.77600
C2          C  0.66116871  0.66723142  0.60348296     0.83400
O3          O  0.59178362  0.62347213  0.58762913    -0.78700
O4          O  0.65904655  0.59743621  0.59789490    -0.80200
O5          O  0.65103010  0.60806089  0.66818365    -0.80000
O6          O  0.61364493  0.64529774  0.67271971    -0.78600
Zn7        Zn  0.61886840  0.65461743  0.62170063     1.55700
O8          O  0.67430501  0.61316407  0.64328201    -0.80000
Cd9        Cd  0.62348495  0.61966954  0.65606601     1.59700
Cd10       Cd  0.60858873  0.60643517  0.60941328     1.59600
O11         O  0.59975952  0.59855594  0.66021109    -0.80000
O12         O  0.62664871  0.62596696  0.62613401    -1.90500
Cd13       Cd  0.65643107  0.62216651  0.61814050     1.59900
O14         O  0.58769108  0.59076952  0.62879173    -0.80000
O15         O  0.66859571  0.64893067  0.60473850    -0.78600
C16         C  0.58923886  0.64302539  0.58604193     0.83900
C17         C  0.60654723  0.66277891  0.66698003     0.83600
O18         O  0.64311556  0.67140692  0.61058246    -0.77600
C19         C  0.66964720  0.60691007  0.66136805     0.84400
O20         O  0.59783173  0.65561479  0.59869109    -0.77700
C21         C  0.58671327  0.58935399  0.64848711     0.84500
C22         C  0.64665464  0.58388680  0.59041296     0.84800
O23         O  0.62703189  0.58473780  0.59357360    -0.80100
O24         O  0.85233850  0.61092537  0.32736541    -0.77600
C25         C  0.89784727  0.66384971  0.33157578     0.83400
O26         O  0.90884905  0.59277135  0.37228249    -0.78700
O27         O  0.90221565  0.65820324  0.40021192    -0.80200
O28         O  0.83025291  0.65550149  0.38647452    -0.80000
O29         O  0.82586019  0.62126042  0.34698106    -0.78600
Zn30       Zn  0.87788895  0.62265407  0.34143963     1.55700
O31         O  0.85737892  0.67703497  0.38529804    -0.80000
Cd32       Cd  0.84160493  0.62825975  0.37403250     1.59700
Cd33       Cd  0.88705030  0.61003085  0.38899769     1.59600
O34         O  0.83480292  0.60369427  0.39322271    -0.80000
O35         O  0.87225471  0.62964974  0.36989434    -1.90500
Cd36       Cd  0.88182251  0.65825606  0.37575755     1.59900
O37         O  0.86545683  0.58989771  0.40181204    -0.80000
O38         O  0.89708058  0.67018068  0.35026374    -0.78600
C39         C  0.91192157  0.59156873  0.35280815     0.83900
C40         C  0.83286255  0.61220848  0.33092060     0.83600
O41         O  0.88924494  0.64700967  0.32580733    -0.77600
C42         C  0.83840189  0.67324130  0.38967754     0.84400
O43         O  0.90076837  0.60165007  0.34005285    -0.77700
C44         C  0.84557591  0.58972387  0.40212258     0.84500
C45         C  0.90821359  0.64507598  0.41362656     0.84800
O46         O  0.90287764  0.62603749  0.41255683    -0.80100
O47         O  0.90170705  0.41426810  0.14723961    -0.77600
C48         C  0.85383395  0.41612052  0.09647834     0.83400
O49         O  0.83900074  0.37492768  0.16545280    -0.78700
O50         O  0.84428215  0.34828709  0.09897619    -0.80200
O51         O  0.91599465  0.35318465  0.10303543    -0.80000
O52         O  0.92455111  0.38912795  0.14098126    -0.78600
Zn53       Zn  0.87394043  0.40297845  0.13722861     1.55700
O54         O  0.89007622  0.35991684  0.08126758    -0.80000
Cd55       Cd  0.90566068  0.36518401  0.13100721     1.59700
Cd56       Cd  0.85886735  0.35631521  0.14818937     1.59600
O57         O  0.90886828  0.34322141  0.15372689    -0.80000
O58         O  0.87618308  0.37415697  0.12941694    -1.90500
Cd59       Cd  0.86672378  0.37078444  0.10036110     1.59900
O60         O  0.87779741  0.33953156  0.16838724    -0.80000
O61         O  0.85452194  0.39792712  0.08882814    -0.78600
C62         C  0.83939678  0.39445264  0.16850970     0.83900
C63         C  0.92023680  0.40712337  0.14789339     0.83600
O64         O  0.86170173  0.42030722  0.11412259    -0.77600
C65         C  0.90807850  0.35251820  0.08491739     0.84400
O66         O  0.85283173  0.40591804  0.15969889    -0.77700
C67         C  0.89726058  0.33560485  0.16774335     0.84500
C68         C  0.83649525  0.33527354  0.11153946     0.84800
O69         O  0.84089363  0.33573771  0.13079408    -0.80100
C70         C  0.74793614  0.54889768  0.00961665     0.81100
N71         N  0.76255705  0.53740515  0.01984779    -0.77200
C72         C  0.76164633  0.51629142  0.01964584     0.83600
N73         N  0.74584034  0.50694436  0.00928991    -0.77100
C74         C  0.73126430  0.51794511  0.99898009     0.83700
N75         N  0.73251698  0.53896828  0.99887054    -0.78900
C76         C  0.04631898  0.49616637  0.25915489     0.81100
N77         N  0.03571713  0.48631435  0.24369851    -0.77200
C78         C  0.01456340  0.48564870  0.24395192     0.83600
N79         N  0.00418610  0.49468932  0.25978965    -0.77100
C80         C  0.01437692  0.50472237  0.27523396     0.83700
N81         N  0.03554992  0.50557487  0.27474948    -0.78900
O82         O  0.61025259  0.33275468  0.85448056    -0.77600
C83         C  0.66340500  0.33152300  0.90024445     0.83400
O84         O  0.59387050  0.37510093  0.91416773    -0.78700
O85         O  0.66354378  0.40099187  0.90548394    -0.80200
O86         O  0.65782557  0.38784154  0.83418442    -0.80000
O87         O  0.61554915  0.35642752  0.83010296    -0.78600
Zn88       Zn  0.62233291  0.34485599  0.88073839     1.55700
O89         O  0.67941692  0.38339390  0.86079962    -0.80000
Cd90       Cd  0.62878006  0.38061228  0.84674508     1.59700
Cd91       Cd  0.61298541  0.39246801  0.89410587     1.59600
O92         O  0.60838050  0.40526541  0.84313176    -0.80000
O93         O  0.63077552  0.37339044  0.87677973    -1.90500
Cd94       Cd  0.66028499  0.37641852  0.88538639     1.59900
O95         O  0.59440101  0.41009535  0.87435570    -0.80000
O96         O  0.67085040  0.34980031  0.89937284    -0.78600
C97         C  0.59053480  0.35555128  0.91447981     0.83900
C98         C  0.60840111  0.33895995  0.83586787     0.83600
O99         O  0.64574583  0.32719889  0.89228603    -0.77600
C100        C  0.67611220  0.38812502  0.84197431     0.84400
O101        O  0.60006444  0.34341525  0.90220709    -0.77700
C102        C  0.59523634  0.41411565  0.85502124     0.84500
C103        C  0.65140660  0.41427449  0.91370393     0.84800
O104        O  0.63169911  0.41330224  0.91103185    -0.80100
O105        O  0.42593030  0.12881865  0.90781111    -0.77600
C106        C  0.42269367  0.07257489  0.86666223     0.83400
O107        O  0.38541639  0.14473555  0.84601626    -0.78700
O108        O  0.35453663  0.07926311  0.85863304    -0.80200
O109        O  0.36231630  0.09080266  0.92898399    -0.80000
O110        O  0.40156037  0.12673218  0.93207889    -0.78600
Zn111      Zn  0.41323925  0.11683257  0.88162093     1.55700
O112        O  0.36760819  0.06573805  0.90580109    -0.80000
Cd113      Cd  0.37592481  0.11676005  0.91538902     1.59700
Cd114      Cd  0.36625327  0.12943941  0.86729347     1.59600
O115        O  0.35534231  0.14134341  0.91712290    -0.80000
O116        O  0.38373946  0.11144409  0.88594548    -1.90500
Cd117      Cd  0.37801257  0.08167486  0.88006751     1.59900
O118        O  0.35010284  0.15161911  0.88467121    -0.80000
O119        O  0.40377087  0.06695052  0.86816667    -0.78600
C120        C  0.40517201  0.14696183  0.84559112     0.83900
C121        C  0.41979748  0.13190760  0.92635007     0.83600
O122        O  0.42865792  0.09059090  0.87240303    -0.77600
C123        C  0.36083780  0.07189031  0.92327326     0.84400
O124        O  0.41704891  0.13796262  0.85860993    -0.77700
C125        C  0.34727348  0.15379552  0.90411528     0.84500
C126        C  0.34258863  0.09185734  0.84921876     0.84800
O127        O  0.34444848  0.11146433  0.85120211    -0.80100
C128        C  0.50873240  0.24894673  0.04664324     0.81100
N129        N  0.51675450  0.26535578  0.03604639    -0.77200
C130        C  0.51649221  0.26571055  0.01505276     0.83600
N131        N  0.50805494  0.24952793  0.00459531    -0.77100
C132        C  0.50032091  0.23286632  0.01470234     0.83700
N133        N  0.50055427  0.23267460  0.03577279    -0.78900
C134        C  0.49926776  0.24419778  0.71090984     0.81100
N135        N  0.51429894  0.25565855  0.72053756    -0.77200
C136        C  0.51744677  0.25412724  0.74127468     0.83600
N137        N  0.50539974  0.24098558  0.75238976    -0.77100
C138        C  0.49025498  0.22950032  0.74329070     0.83700
N139        N  0.48716041  0.23128013  0.72252330    -0.78900
C140        C  0.55254260  0.98460240  0.76232257     0.81100
N141        N  0.54190560  0.99283732  0.77857253    -0.77200
C142        C  0.52089268  0.99154235  0.77955493     0.83600
N143        N  0.51037208  0.98202943  0.76406165    -0.77100
C144        C  0.52050474  0.97400221  0.74746593     0.83700
N145        N  0.54169883  0.97523761  0.74668710    -0.78900
C146        C  0.94766890  0.99983253  0.25244697     0.81100
N147        N  0.95808922  0.00793286  0.23603314    -0.77200
C148        C  0.97898187  0.00520659  0.23418901     0.83600
N149        N  0.98953963  0.99488714  0.24908127    -0.77100
C150        C  0.97960500  0.98725343  0.26586273     0.83700
N151        N  0.95863971  0.98964381  0.26732323    -0.78900
C152        C  0.24926904  0.28690325  0.99652464     0.81100
N153        N  0.23898636  0.27615161  0.01153158    -0.77200
C154        C  0.23842061  0.25503943  0.01113538     0.83600
N155        N  0.24816415  0.24483254  0.99552103    -0.77100
C156        C  0.25841174  0.25514162  0.98039844     0.83700
N157        N  0.25894082  0.27616520  0.98107442    -0.78900
C158        C  0.24670237  0.94169808  0.00196429     0.81100
N159        N  0.26243253  0.95300301  0.99346722    -0.77200
C160        C  0.26241574  0.97402005  0.99484688     0.83600
N161        N  0.24624184  0.98373076  0.00414219    -0.77100
C162        C  0.23042948  0.97277399  0.01254409     0.83700
N163        N  0.23070550  0.95172921  0.01156964    -0.78900
C164        C  0.28998555  0.00098044  0.24756110     0.81100
N165        N  0.27817315  0.98648818  0.25751428    -0.77200
C166        C  0.25700762  0.98757241  0.25720215     0.83600
N167        N  0.24781759  0.00345082  0.24703173    -0.77100
C168        C  0.25914226  0.01800888  0.23706097     0.83700
N169        N  0.28027539  0.01673263  0.23730787    -0.78900
C170        C  0.99425266  0.24676635  0.95170895     0.81100
N171        N  0.98395907  0.26123020  0.96323549    -0.77200
C172        C  0.98216348  0.25894801  0.98410107     0.83600
N173        N  0.99058318  0.24203374  0.99327233    -0.77100
C174        C  0.00106768  0.22768908  0.98209253     0.83700
N175        N  0.00285753  0.23012991  0.96138702    -0.78900
C176        C  0.99806518  0.24049281  0.29770600     0.81100
N177        N  0.98242453  0.24970592  0.28677036    -0.77200
C178        C  0.98187801  0.24869662  0.26579924     0.83600
N179        N  0.99744164  0.23882682  0.25574034    -0.77100
C180        C  0.01318753  0.22953103  0.26612605     0.83700
N181        N  0.01345732  0.23029626  0.28719438    -0.78900
O182        O  0.09544168  0.07524357  0.13790096    -0.77600
C183        C  0.13851455  0.07590923  0.08370962     0.83400
O184        O  0.15562542  0.11926371  0.15299718    -0.78700
O185        O  0.14326289  0.14446396  0.08452235    -0.80200
O186        O  0.07339089  0.13603264  0.09671324    -0.80000
O187        O  0.07037429  0.09840253  0.13278750    -0.78600
Zn188      Zn  0.12146551  0.08850260  0.12612875     1.55700
O189        O  0.09643730  0.12928015  0.07188546    -0.80000
Cd190      Cd  0.08684505  0.12390205  0.12295470     1.59700
Cd191      Cd  0.13440983  0.13653256  0.13556824     1.59600
O192        O  0.08364727  0.14511747  0.14645611    -0.80000
O193        O  0.11666253  0.11711075  0.11850094    -1.90500
Cd194      Cd  0.12267283  0.12047801  0.08845080     1.59900
O195        O  0.11574840  0.15344715  0.15643710    -0.80000
O196        O  0.13600411  0.09391759  0.07605301    -0.78600
C197        C  0.15645056  0.09979703  0.15643323     0.83900
C198        C  0.07643195  0.08081193  0.13928798     0.83600
O199        O  0.13257736  0.07171008  0.10203090    -0.77600
C200        C  0.07893759  0.13645933  0.07782193     0.84400
O201        O  0.14388683  0.08728298  0.14766675    -0.77700
C202        C  0.09597908  0.15495778  0.15836241     0.84500
C203        C  0.15262467  0.15730804  0.09627908     0.84800
O204        O  0.15093700  0.15660218  0.11598695    -0.80100
O205        O  0.42355555  0.85490332  0.59860729    -0.77600
C206        C  0.42385219  0.90765549  0.64338367     0.83400
O207        O  0.37807363  0.84356429  0.66047261    -0.78700
O208        O  0.35427322  0.90996060  0.64620504    -0.80200
O209        O  0.36383980  0.89909496  0.57716882    -0.80000
O210        O  0.40022910  0.86215704  0.57434624    -0.78600
Zn211      Zn  0.40979625  0.86657535  0.62456041     1.55700
O212        O  0.37208888  0.92308431  0.60049423    -0.80000
Cd213      Cd  0.37465553  0.87207840  0.59054693     1.59700
Cd214      Cd  0.36137450  0.85900691  0.63734076     1.59600
O215        O  0.35320389  0.84874789  0.58728703    -0.80000
O216        O  0.38147517  0.87562753  0.62006826    -1.90500
Cd217      Cd  0.37916974  0.90563256  0.62659641     1.59900
O218        O  0.34564728  0.83714184  0.61877191    -0.80000
O219        O  0.40610697  0.91625223  0.64102399    -0.78600
C220        C  0.39750248  0.83941235  0.66123088     0.83900
C221        C  0.41785450  0.85489242  0.57969656     0.83600
O222        O  0.42733911  0.88952428  0.63642104    -0.77600
C223        C  0.36482035  0.91801262  0.58279026     0.84400
O224        O  0.40996439  0.84592981  0.64739647    -0.77700
C225        C  0.34391181  0.83597548  0.59909410     0.84500
C226        C  0.33999369  0.89865781  0.65393940     0.84800
O227        O  0.33987072  0.87899724  0.65142747    -0.80100
O228        O  0.09139715  0.91710926  0.36316106    -0.77600
C229        C  0.13706253  0.91769930  0.41521266     0.83400
O230        O  0.15797127  0.88281675  0.34446907    -0.78700
O231        O  0.14637958  0.84868265  0.41012626    -0.80200
O232        O  0.07934944  0.85042465  0.39979597    -0.80000
O233        O  0.07008706  0.89014402  0.36644955    -0.78600
Zn234      Zn  0.11968266  0.90649173  0.37246300     1.55700
O235        O  0.10011680  0.86188702  0.42493215    -0.80000
Cd236      Cd  0.09015171  0.86635237  0.37404067     1.59700
Cd237      Cd  0.13872133  0.86156079  0.35984804     1.59600
O238        O  0.08978352  0.84710933  0.34869851    -0.80000
O239        O  0.11871973  0.87710802  0.37825936    -1.90500
Cd240      Cd  0.12526610  0.87248492  0.40799303     1.59900
O241        O  0.12225516  0.84489641  0.33702827    -0.80000
O242        O  0.13711158  0.89902427  0.42153106    -0.78600
C243        C  0.15588715  0.90233047  0.34162750     0.83900
C244        C  0.07331387  0.90902451  0.36170122     0.83600
O245        O  0.12966414  0.92241039  0.39752389    -0.77600
C246        C  0.08447214  0.85137300  0.41885903     0.84400
O247        O  0.14127839  0.91239424  0.35044267    -0.77700
C248        C  0.10287823  0.84068186  0.33535536     0.84500
C249        C  0.15660215  0.83749139  0.39745875     0.84800
O250        O  0.15601150  0.84057160  0.37791078    -0.80100
C251        C  0.00698572  0.73611806  0.54878859     0.81100
N252        N  0.01608779  0.75172737  0.53787403    -0.77200
C253        C  0.01467609  0.75212443  0.51687753     0.83600
N254        N  0.00470271  0.73652509  0.50689869    -0.77100
C255        C  0.99573989  0.72082796  0.51747184     0.83700
N256        N  0.99651402  0.72085765  0.53847208    -0.78900
C257        C  0.25515846  0.04374968  0.49275764     0.81100
N258        N  0.24029248  0.03245301  0.48291153    -0.77200
C259        C  0.23972314  0.01151354  0.48455084     0.83600
N260        N  0.25400040  0.00178786  0.49663299    -0.77100
C261        C  0.26887213  0.01281380  0.50683729     0.83700
N262        N  0.26946671  0.03375178  0.50466988    -0.78900
C263        C  0.25161628  0.70524533  0.49555270     0.81100
N264        N  0.24145454  0.71605278  0.48046963    -0.77200
C265        C  0.24063775  0.73713572  0.48111038     0.83600
N266        N  0.24982824  0.74720940  0.49715675    -0.77100
C267        C  0.25977273  0.73682522  0.51242642     0.83700
N268        N  0.26080546  0.71580588  0.51143357    -0.78900
C269        C  0.01125135  0.74207209  0.20130228     0.81100
N270        N  0.99549326  0.73242607  0.21159337    -0.77200
C271        C  0.99512250  0.73235819  0.23261859     0.83600
N272        N  0.01054407  0.74193667  0.24327365    -0.77100
C273        C  0.02650418  0.75133674  0.23344174     0.83700
N274        N  0.02662485  0.75157511  0.21243611    -0.78900
C275        C  0.20918873  0.00168591  0.74686213     0.81100
N276        N  0.22037985  0.01616342  0.75751679    -0.77200
C277        C  0.24150217  0.01528342  0.75807259     0.83600
N278        N  0.25142176  0.99948939  0.74842295    -0.77100
C279        C  0.24065129  0.98467553  0.73807880     0.83700
N280        N  0.21953579  0.98598408  0.73709329    -0.78900
C281        C  0.74586124  0.20237357  0.01294712     0.81100
N282        N  0.73691212  0.21370260  0.99746979    -0.77200
C283        C  0.73579939  0.23477300  0.99892430     0.83600
N284        N  0.74355486  0.24432026  0.01599066    -0.77100
C285        C  0.75255829  0.23336792  0.03137479     0.83700
N286        N  0.75389444  0.21248780  0.02967770    -0.78900
C287        C  0.49795815  0.75198038  0.79584735     0.81100
N288        N  0.48157505  0.76120137  0.78616518    -0.77200
C289        C  0.47998954  0.76067452  0.76524327     0.83600
N290        N  0.49510207  0.75134757  0.75401413    -0.77100
C291        C  0.51175468  0.74232622  0.76322823     0.83700
N292        N  0.51300389  0.74251804  0.78426515    -0.78900
C293        C  0.49944310  0.74113343  0.45243897     0.81100
N294        N  0.50748949  0.72528595  0.46375606    -0.77200
C295        C  0.50552233  0.72485812  0.48465542     0.83600
N296        N  0.49540051  0.74061617  0.49429759    -0.77100
C297        C  0.48742332  0.75663705  0.48328465     0.83700
N298        N  0.48958060  0.75693674  0.46238916    -0.78900
C299        C  0.74832257  0.79985459  0.49804696     0.81100
N300        N  0.73651394  0.78898917  0.51178356    -0.77200
C301        C  0.73295977  0.76842354  0.50911739     0.83600
N302        N  0.74163369  0.75861408  0.49275701    -0.77100
C303        C  0.75371731  0.76880485  0.47891410     0.83700
N304        N  0.75699305  0.78956743  0.48162591    -0.78900
C305        C  0.45899696  0.49783324  0.75369163     0.81100
N306        N  0.46990096  0.48906348  0.76954440    -0.77200
C307        C  0.49112048  0.48938183  0.76945397     0.83600
N308        N  0.50128360  0.49842002  0.75344690    -0.77100
C309        C  0.49067724  0.50703202  0.73749241     0.83700
N310        N  0.46958940  0.50670775  0.73780604    -0.78900
C311        C  0.79837401  0.49804749  0.75043138     0.81100
N312        N  0.78802496  0.48294454  0.76083142    -0.77200
C313        C  0.76688624  0.48232300  0.76099786     0.83600
N314        N  0.75617202  0.49689578  0.75033132    -0.77100
C315        C  0.76609837  0.51213960  0.73985678     0.83700
N316        N  0.78724117  0.51261242  0.73994934    -0.78900
C317        C  0.74208876  0.45483911  0.48789061     0.81100
N318        N  0.72747218  0.46567393  0.49879408    -0.77200
C319        C  0.72774471  0.48672847  0.49941002     0.83600
N320        N  0.74300903  0.49685177  0.48927265    -0.77100
C321        C  0.75785798  0.48664793  0.47840414     0.83700
N322        N  0.75732415  0.46552774  0.47771359    -0.78900
C323        C  0.70392228  0.49593483  0.25441343     0.81100
N324        N  0.71436379  0.51309616  0.26107206    -0.77200
C325        C  0.73543200  0.51410847  0.25986164     0.83600
N326        N  0.74612157  0.49766950  0.25243535    -0.77100
C327        C  0.73614750  0.48034882  0.24598421     0.83700
N328        N  0.71499668  0.47961331  0.24667658    -0.78900
O329        O  0.12125238  0.35672298  0.67182485    -0.77600
C330        C  0.17583685  0.39047178  0.65915752     0.83400
O331        O  0.09350539  0.40369715  0.62377283    -0.78700
O332        O  0.16635507  0.39602747  0.59752403    -0.80200
O333        O  0.14964015  0.32170125  0.61250544    -0.80000
O334        O  0.11510236  0.32937294  0.65154456    -0.78600
Zn335      Zn  0.13021513  0.37974865  0.65349435     1.55700
O336        O  0.17418365  0.34489380  0.60567425    -0.80000
Cd337      Cd  0.12524694  0.34013324  0.62311691     1.59700
Cd338      Cd  0.11564438  0.38735453  0.60687023     1.59600
O339        O  0.10229778  0.33740950  0.60077617    -0.80000
O340        O  0.13315135  0.36982175  0.62560988    -1.90500
Cd341      Cd  0.16273804  0.37208512  0.61789472     1.59900
O342        O  0.09976309  0.36844976  0.58590668    -0.80000
O343        O  0.18082246  0.38088930  0.64265977    -0.78600
C344        C  0.09295668  0.40739858  0.64313291     0.83900
C345        C  0.11491329  0.33822518  0.66922623     0.83600
O346        O  0.15687125  0.39218669  0.66466188    -0.77600
C347        C  0.16749153  0.32630300  0.60527344     0.84400
O348        O  0.10672186  0.40011682  0.65531603    -0.77700
C349        C  0.09508224  0.34921908  0.58665345     0.84500
C350        C  0.15431227  0.40981951  0.59011439     0.84800
O351        O  0.13458132  0.40905021  0.59233423    -0.80100
O352        O  0.59599907  0.14022453  0.42524693    -0.77600
C353        C  0.63687517  0.08604823  0.41680600     0.83400
O354        O  0.65039252  0.16349610  0.38013994    -0.78700
O355        O  0.63985533  0.09214532  0.35069307    -0.80200
O356        O  0.56730087  0.10683007  0.36844548    -0.80000
O357        O  0.57180423  0.14659288  0.40134404    -0.78600
Zn358      Zn  0.62147036  0.13033851  0.40980686     1.55700
O359        O  0.59092781  0.08189864  0.36569517    -0.80000
Cd360      Cd  0.58493030  0.13274990  0.37545590     1.59700
Cd361      Cd  0.63362639  0.14216584  0.36239549     1.59600
O362        O  0.58287017  0.15150879  0.34958049    -0.80000
O363        O  0.61475327  0.12563197  0.38083340    -1.90500
Cd364      Cd  0.61847215  0.09599404  0.37407143     1.59900
O365        O  0.61580199  0.15779275  0.34057133    -0.80000
O366        O  0.63081939  0.08059864  0.39884371    -0.78600
C367        C  0.65164660  0.16589717  0.39972687     0.83900
C368        C  0.57818458  0.14727070  0.42003696     0.83600
O369        O  0.63424428  0.10456325  0.42336117    -0.77600
C370        C  0.57214926  0.08813160  0.36441491     0.84400
O371        O  0.64185009  0.15408636  0.41211547    -0.77700
C372        C  0.59624685  0.15958643  0.33747786     0.84500
C373        C  0.65340380  0.10364709  0.34206306     0.84800
O374        O  0.65411521  0.12308599  0.34576433    -0.80100
C375        C  0.48712753  0.24804616  0.55434601     0.81100
N376        N  0.49733876  0.23379332  0.54229633    -0.77200
C377        C  0.49779925  0.23589680  0.52125419     0.83600
N378        N  0.48825697  0.25247474  0.51259015    -0.77100
C379        C  0.47805643  0.26665534  0.52414635     0.83700
N380        N  0.47742991  0.26435926  0.54498159    -0.78900
O381        O  0.38960430  0.36003687  0.32996301    -0.77600
C382        C  0.33449531  0.39779941  0.33897144     0.83400
O383        O  0.41157332  0.41085123  0.38063899    -0.78700
O384        O  0.33685074  0.39911542  0.40394446    -0.80200
O385        O  0.35587768  0.32674990  0.38307587    -0.80000
O386        O  0.39695823  0.33508275  0.35234084    -0.78600
Zn387      Zn  0.37891825  0.38381047  0.34753748     1.55700
O388        O  0.32983246  0.34895349  0.38757745    -0.80000
Cd389      Cd  0.38155329  0.34571975  0.37855788     1.59700
Cd390      Cd  0.38890474  0.39318023  0.39616587     1.59600
O391        O  0.39958305  0.34258260  0.40487010    -0.80000
O392        O  0.37330739  0.37530288  0.37563326    -1.90500
Cd393      Cd  0.34294342  0.37751550  0.38096490     1.59900
O394        O  0.40342499  0.37425687  0.41831001    -0.80000
O395        O  0.32806319  0.38959564  0.35564648    -0.78600
C396        C  0.41424827  0.41306705  0.36117762     0.83900
C397        C  0.39749633  0.34238828  0.33402525     0.83600
O398        O  0.35368313  0.39715917  0.33397734    -0.77600
C399        C  0.33684668  0.33044811  0.38719389     0.84400
O400        O  0.40238950  0.40407539  0.34812779    -0.77700
C401        C  0.40619846  0.35464778  0.41913586     0.84500
C402        C  0.34796502  0.41265035  0.41321155     0.84800
O403        O  0.36781056  0.41288725  0.41139185    -0.80100
C404        C  0.54672450  0.50164853  0.25904145     0.81100
N405        N  0.53697063  0.49263856  0.27540529    -0.77200
C406        C  0.51614913  0.49508223  0.27827463     0.83600
N407        N  0.50508418  0.50650125  0.26451454    -0.77100
C408        C  0.51445673  0.51544854  0.24801957     0.83700
N409        N  0.53528021  0.51284611  0.24532744    -0.78900
C410        C  0.50237843  0.74724242  0.95303381     0.81100
N411        N  0.49171577  0.73243492  0.96363275    -0.77200
C412        C  0.49138487  0.73248293  0.98462755     0.83600
N413        N  0.50183252  0.74745688  0.99506400    -0.77100
C414        C  0.51260162  0.76236978  0.98498978     0.83700
N415        N  0.51276283  0.76229062  0.96390448    -0.78900
O416        O  0.36491067  0.57392916  0.11121552    -0.77600
C417        C  0.41941307  0.58604105  0.14626925     0.83400
O418        O  0.33938066  0.62493784  0.15969678    -0.78700
O419        O  0.41292431  0.64681822  0.15091825    -0.80200
O420        O  0.39354037  0.63465815  0.07776886    -0.80000
O421        O  0.36084788  0.59427193  0.08382398    -0.78600
Zn422      Zn  0.37386757  0.59284093  0.13463421     1.55700
O423        O  0.41978304  0.63945655  0.09972533    -0.80000
Cd424      Cd  0.36968803  0.62275691  0.09562071     1.59700
Cd425      Cd  0.36169484  0.64109216  0.14229680     1.59600
O426        O  0.34565563  0.64370429  0.09279664    -0.80000
O427        O  0.37803047  0.62070832  0.12506700    -1.90500
Cd428      Cd  0.40818847  0.62695669  0.12676523     1.59900
O429        O  0.34613894  0.66164570  0.12248906    -0.80000
O430        O  0.42536363  0.60157619  0.13576428    -0.78600
C431        C  0.33804200  0.60555038  0.16345253     0.83900
C432        C  0.35991621  0.57650340  0.09229881     0.83600
O433        O  0.40012344  0.58159149  0.14786475    -0.77600
C434        C  0.41191542  0.64104451  0.08169324     0.84400
O435        O  0.35064549  0.59260735  0.15535560    -0.77700
C436        C  0.33994567  0.65909153  0.10382889     0.84500
C437        C  0.40178538  0.65632237  0.16414312     0.84800
O438        O  0.38188674  0.65649399  0.16309641    -0.80100
C439        C  0.25304615  0.54871113  0.50736976     0.81100
N440        N  0.24011583  0.53940063  0.52117052    -0.77200
C441        C  0.24213632  0.51892996  0.52551351     0.83600
N442        N  0.25682194  0.50754114  0.51561590    -0.77100
C443        C  0.26962107  0.51632958  0.50149234     0.83700
N444        N  0.26759957  0.53693077  0.49739614    -0.78900
O445        O  0.57854377  0.89355727  0.14213266    -0.77600
C446        C  0.58744311  0.85725921  0.08543716     0.83400
O447        O  0.62634662  0.83996821  0.16305284    -0.78700
O448        O  0.65210782  0.85107830  0.09228019    -0.80200
O449        O  0.63909534  0.92445935  0.11039930    -0.80000
O450        O  0.60097399  0.91934716  0.14669478    -0.78600
Zn451      Zn  0.59521644  0.86916758  0.13089873     1.55700
O452        O  0.64266987  0.90176005  0.08475302    -0.80000
Cd453      Cd  0.62807517  0.90652336  0.13466026     1.59700
Cd454      Cd  0.64369583  0.85853740  0.14304216     1.59600
O455        O  0.65098751  0.90819909  0.15675314    -0.80000
O456        O  0.62413349  0.87689786  0.12660003    -1.90500
Cd457      Cd  0.63068186  0.87440185  0.09668805     1.59900
O458        O  0.66420188  0.87658579  0.16089662    -0.80000
O459        O  0.60497357  0.86468822  0.07995801    -0.78600
C460        C  0.60669875  0.83747697  0.16468463     0.83900
C461        C  0.58266194  0.91191685  0.14835419     0.83600
O462        O  0.58182656  0.85764232  0.10438349    -0.77600
C463        C  0.64487178  0.92003451  0.09206414     0.84400
O464        O  0.59402047  0.84731835  0.15309971    -0.77700
C465        C  0.66422375  0.89598804  0.16493227     0.84500
C466        C  0.66198482  0.83827763  0.10361597     0.84800
O467        O  0.66067526  0.83892883  0.12332611    -0.80100
C468        C  0.75731288  0.70618852  0.00344961     0.81100
N469        N  0.76851304  0.71649334  0.98877789    -0.77200
C470        C  0.76852865  0.73759772  0.98826416     0.83600
N471        N  0.75739627  0.74828673  0.00252325    -0.77100
C472        C  0.74626381  0.73843838  0.01726877     0.83700
N473        N  0.74621512  0.71739295  0.01759372    -0.78900
O474        O  0.88635691  0.14797479  0.67384790    -0.77600
C475        C  0.83244638  0.11009647  0.66379220     0.83400
O476        O  0.91241044  0.09649096  0.62623357    -0.78700
O477        O  0.84007291  0.10308550  0.59902039    -0.80200
O478        O  0.85443256  0.17658947  0.61330279    -0.80000
O479        O  0.89020199  0.17378507  0.65167583    -0.78600
Zn480      Zn  0.87738274  0.12338612  0.65642794     1.55700
O481        O  0.82958888  0.15306514  0.60859486    -0.80000
Cd482      Cd  0.87985737  0.16031146  0.62425426     1.59700
Cd483      Cd  0.89043402  0.11288383  0.60856602     1.59600
O484        O  0.90224858  0.16350533  0.60161921    -0.80000
O485        O  0.87286128  0.13049665  0.62769456    -1.90500
Cd486      Cd  0.84297065  0.12644152  0.62063185     1.59900
O487        O  0.90593044  0.13203725  0.58753206    -0.80000
O488        O  0.82646631  0.11657738  0.64615282    -0.78600
C489        C  0.91402504  0.09472247  0.64586606     0.83900
C490        C  0.89155132  0.16659729  0.66998775     0.83600
O491        O  0.85151130  0.11106685  0.66924605    -0.77600
C492        C  0.83627289  0.17158876  0.60703241     0.84400
O493        O  0.90122957  0.10354512  0.65809162    -0.77700
C494        C  0.90968240  0.15148072  0.58779206     0.84500
C495        C  0.85225578  0.09076497  0.58945578     0.84800
O496        O  0.87200086  0.09198435  0.59158267    -0.80100
C497        C  0.70927682  0.00203064  0.76064002     0.81100
N498        N  0.71915742  0.01765666  0.75034107    -0.77200
C499        C  0.74035168  0.01906439  0.75067621     0.83600
N500        N  0.75141988  0.00475332  0.76136413    -0.77100
C501        C  0.74193375  0.98917119  0.77156310     0.83700
N502        N  0.72091891  0.98778022  0.77097883    -0.78900
O503        O  0.86973592  0.92355885  0.89258203    -0.77600
C504        C  0.92283982  0.91440392  0.85186520     0.83400
O505        O  0.84207417  0.87477356  0.84517164    -0.78700
O506        O  0.91539766  0.85145883  0.84664119    -0.80200
O507        O  0.90563810  0.86603410  0.92131311    -0.80000
O508        O  0.86728547  0.90159053  0.91885618    -0.78600
Zn509      Zn  0.87877511  0.90643129  0.86784611     1.55700
O510        O  0.92894346  0.86072330  0.89649221    -0.80000
Cd511      Cd  0.87886044  0.87467151  0.90599007     1.59700
Cd512      Cd  0.86539277  0.85817132  0.86031138     1.59600
O513        O  0.85804822  0.85090306  0.91100144    -0.80000
O514        O  0.88391598  0.87809201  0.87596886    -1.90500
Cd515      Cd  0.91371136  0.87207100  0.87063293     1.59900
O516        O  0.85106497  0.83706441  0.88022101    -0.80000
O517        O  0.92951613  0.89752656  0.85954202    -0.78600
C518        C  0.84129572  0.89410757  0.84122987     0.83900
C519        C  0.86496600  0.91965653  0.91132685     0.83600
O520        O  0.90372738  0.91958453  0.85336848    -0.77600
C521        C  0.92359801  0.86006115  0.91544989     0.84400
O522        O  0.85472587  0.90684547  0.84822163    -0.77700
C523        C  0.84918105  0.83712566  0.89987793     0.84500
C524        C  0.90259487  0.84196403  0.83490390     0.84800
O525        O  0.88294846  0.84254283  0.83790717    -0.80100
O526        O  0.11034315  0.62811435  0.92531071    -0.77600
C527        C  0.14400160  0.57093133  0.91424854     0.83400
O528        O  0.15878755  0.65108474  0.87646680    -0.78700
O529        O  0.15162746  0.57962832  0.85058303    -0.80200
O530        O  0.07682965  0.59568638  0.86674330    -0.80000
O531        O  0.08357826  0.63264241  0.90403935    -0.78600
Zn532      Zn  0.13333598  0.61657079  0.90737455     1.55700
O533        O  0.10020629  0.57149292  0.85873008    -0.80000
Cd534      Cd  0.09455492  0.62050213  0.87650596     1.59700
Cd535      Cd  0.14087507  0.63046350  0.85928342     1.59600
O536        O  0.09029863  0.64217507  0.85342060    -0.80000
O537        O  0.12435381  0.61279414  0.87892592    -1.90500
Cd538      Cd  0.12754920  0.58301101  0.87145369     1.59900
O539        O  0.12143054  0.64767609  0.83939131    -0.80000
O540        O  0.13660825  0.56556255  0.89671572    -0.78600
C541        C  0.16296459  0.65168250  0.89576571     0.83900
C542        C  0.09194096  0.63457869  0.92185663     0.83600
O543        O  0.14421597  0.58987381  0.91995276    -0.77600
C544        C  0.08154246  0.57826935  0.85865580     0.84400
O545        O  0.15528280  0.63861742  0.90834218    -0.77700
C546        C  0.10175657  0.65071301  0.83981685     0.84500
C547        C  0.16357627  0.59208609  0.84101785     0.84800
O548        O  0.16127397  0.61172196  0.84240416    -0.80100
C549        C  0.00504912  0.74686610  0.70545749     0.81100
N550        N  0.99100094  0.75945419  0.71514956    -0.77200
C551        C  0.99069399  0.76096618  0.73613878     0.83600
N552        N  0.00453765  0.74982493  0.74735282    -0.77100
C553        C  0.01868395  0.73723111  0.73823839     0.83700
N554        N  0.01880102  0.73575801  0.71721835    -0.78900
C555        C  0.95575567  0.49638899  0.74099203     0.81100
N556        N  0.96653612  0.48619998  0.72587056    -0.77200
C557        C  0.98775346  0.48695456  0.72554378     0.83600
N558        N  0.99793342  0.49780824  0.74044655    -0.77100
C559        C  0.98752716  0.50787185  0.75563302     0.83700
N560        N  0.96647844  0.50711086  0.75571554    -0.78900
C561        C  0.30155901  0.50478916  0.74469471     0.81100
N562        N  0.29001612  0.51968973  0.75426512    -0.77200
C563        C  0.26893408  0.52003113  0.75221073     0.83600
N564        N  0.25944397  0.50511595  0.74080180    -0.77100
C565        C  0.27064576  0.48995299  0.73145953     0.83700
N566        N  0.29166938  0.48987234  0.73344098    -0.78900
C567        C  0.74962255  0.95683592  0.50135397     0.81100
N568        N  0.73396667  0.96766373  0.49188457    -0.77200
C569        C  0.73454150  0.98877881  0.49114866     0.83600
N570        N  0.75082888  0.99880250  0.49991054    -0.77100
C571        C  0.76644027  0.98852623  0.50939697     0.83700
N572        N  0.76576445  0.96750706  0.51014533    -0.78900
C573        C  0.99560435  0.25458713  0.45414026     0.81100
N574        N  0.00652581  0.26951628  0.46451719    -0.77200
C575        C  0.00539351  0.27084695  0.48551955     0.83600
N576        N  0.99324033  0.25728976  0.49596265    -0.77100
C577        C  0.98256644  0.24222909  0.48591198     0.83700
N578        N  0.98398484  0.24073346  0.46502345    -0.78900
C579        C  0.00536779  0.24939488  0.79533867     0.81100
N580        N  0.02068274  0.26012963  0.78547683    -0.77200
C581        C  0.02053350  0.26180689  0.76449939     0.83600
N582        N  0.00487768  0.25273399  0.75360798    -0.77100
C583        C  0.98953420  0.24197742  0.76305462     0.83700
N584        N  0.98980080  0.24053987  0.78400240    -0.78900
C585        C  0.51338122  0.73697468  0.29640734     0.81100
N586        N  0.49913571  0.72601061  0.28516973    -0.77200
C587        C  0.49953887  0.72598131  0.26418561     0.83600
N588        N  0.51453761  0.73698889  0.25443997    -0.77100
C589        C  0.52879614  0.74817545  0.26518265     0.83700
N590        N  0.52811760  0.74826655  0.28623786    -0.78900
C591        C  0.79075906  0.00099433  0.25973297     0.81100
N592        N  0.78152083  0.98490069  0.24967092    -0.77200
C593        C  0.76052893  0.98396893  0.24795771     0.83600
N594        N  0.74870910  0.99927916  0.25617618    -0.77100
C595        C  0.75759288  0.01568284  0.26599936     0.83700
N596        N  0.77872230  0.01648762  0.26772488    -0.78900
C597        C  0.25424681  0.78513673  0.99048548     0.81100
N598        N  0.24642115  0.77439907  0.97409688    -0.77200
C599        C  0.24902601  0.75357285  0.97253336     0.83600
N600        N  0.25933289  0.74340022  0.98773339    -0.77100
C601        C  0.26712096  0.75373456  0.00436417     0.83700
N602        N  0.26456128  0.77460505  0.00560322    -0.78900
C603        C  0.74682715  0.29781165  0.49549283     0.81100
N604        N  0.73830272  0.28654745  0.47973356    -0.77200
C605        C  0.74053951  0.26562849  0.47880031     0.83600
N606        N  0.75123503  0.25595916  0.49401802    -0.77100
C607        C  0.75979275  0.26670505  0.50999191     0.83700
N608        N  0.75754110  0.28770138  0.51067908    -0.78900
C609        C  0.20324346  0.50345853  0.24965653     0.81100
N610        N  0.21482148  0.48939658  0.26035400    -0.77200
C611        C  0.23594330  0.49055092  0.26034607     0.83600
N612        N  0.24530856  0.50616821  0.25001848    -0.77100
C613        C  0.23413890  0.52032446  0.23935429     0.83700
N614        N  0.21298786  0.51896902  0.23908508    -0.78900
C615        C  0.25753118  0.44398462  0.99959477     0.81100
N616        N  0.24201256  0.45492662  0.99020639    -0.77200
C617        C  0.24120748  0.47586462  0.99147538     0.83600
N618        N  0.25623371  0.48583043  0.00224909    -0.77100
C619        C  0.27191263  0.47560229  0.01187453     0.83700
N620        N  0.27253230  0.45444993  0.01056191    -0.78900
C621        C  0.44796461  0.99549249  0.25667343     0.81100
N622        N  0.45833373  0.00614857  0.27173044    -0.77200
C623        C  0.47944953  0.00657750  0.27211042     0.83600
N624        N  0.49014354  0.99600610  0.25753402    -0.77100
C625        C  0.48036786  0.98524711  0.24237263     0.83700
N626        N  0.45915916  0.98506314  0.24195565    -0.78900
C627        C  0.50716884  0.25706099  0.20331438     0.81100
N628        N  0.49166075  0.26724096  0.21350441    -0.77200
C629        C  0.49164202  0.26806393  0.23448391     0.83600
N630        N  0.50694096  0.25856986  0.24526017    -0.77100
C631        C  0.52239615  0.24819298  0.23547478     0.83700
N632        N  0.52238593  0.24742460  0.21442778    -0.78900
C633        C  0.25183012  0.20079362  0.49150948     0.81100
N634        N  0.26134315  0.21137181  0.47594915    -0.77200
C635        C  0.26151296  0.23240666  0.47591049     0.83600
N636        N  0.25170626  0.24285492  0.49124278    -0.77100
C637        C  0.24186072  0.23267750  0.50666204     0.83700
N638        N  0.24215771  0.21161528  0.50686851    -0.78900
C639        C  0.01757204  0.75780171  0.04546988     0.81100
N640        N  0.00786027  0.77316938  0.03458083    -0.77200
C641        C  0.00960488  0.77385773  0.01354642     0.83600
N642        N  0.02098129  0.75908403  0.00378162    -0.77100
C643        C  0.03062177  0.74376516  0.01426390     0.83700
N644        N  0.02866439  0.74310488  0.03510453    -0.78900
C645        C  0.75825485  0.04564431  0.00687108     0.81100
N646        N  0.77329203  0.03576709  0.99565961    -0.77200
C647        C  0.77380775  0.01468800  0.99471114     0.83600
N648        N  0.75923770  0.00365831  0.00507650    -0.77100
C649        C  0.74428788  0.01307293  0.01639309     0.83700
N650        N  0.74380588  0.03409507  0.01708962    -0.78900
C651        C  0.05105986  0.00514388  0.74450918     0.81100
N652        N  0.03990096  0.01562025  0.72987446    -0.77200
C653        C  0.01874143  0.01683594  0.73123874     0.83600
N654        N  0.00897648  0.00766992  0.74741252    -0.77100
C655        C  0.01979630  0.99728189  0.76205809     0.83700
N656        N  0.04079752  0.99588831  0.76043099    -0.78900
C657        C  0.18722644  0.69148001  0.93184969    -0.13500
C658        C  0.20191287  0.70081783  0.91899911     0.16900
C659        C  0.20409873  0.69385622  0.89847347     0.03200
C660        C  0.19126438  0.67787947  0.89103145    -0.12000
C661        C  0.17655441  0.66835882  0.90398939    -0.03000
C662        C  0.17467186  0.67538341  0.92465171     0.02400
C663        C  0.21569976  0.71658545  0.92828346     0.09300
N664        N  0.21920910  0.70287704  0.88508129     0.65600
H665        H  0.19300904  0.67273094  0.87514631     0.18500
N666        N  0.15974077  0.66673165  0.93847431     0.76100
H667        H  0.18569118  0.69657460  0.94778886     0.10100
C668        C  0.20777019  0.73584911  0.93483513     0.03800
C669        C  0.21955472  0.74840014  0.94810266    -0.05000
C670        C  0.23901234  0.74178195  0.95550675    -0.23300
C671        C  0.24734828  0.72290977  0.94801812     0.13000
C672        C  0.23570246  0.71060751  0.93439942    -0.12500
N673        N  0.18718927  0.74215042  0.92928029     0.64700
H674        H  0.21278425  0.76273279  0.95372883     0.12500
N675        N  0.26724581  0.71559875  0.95466054     0.61300
H676        H  0.24178234  0.69565838  0.92962000     0.08700
O677        O  0.16541432  0.65309545  0.95123361    -0.40100
O678        O  0.14239642  0.67559852  0.94079454    -0.39300
O679        O  0.23659624  0.69411447  0.88268228    -0.39300
O680        O  0.21388183  0.71724672  0.87300430    -0.37000
O681        O  0.28333741  0.72111420  0.94498312    -0.37900
O682        O  0.26824615  0.70040438  0.96684608    -0.34100
O683        O  0.17242064  0.73949408  0.94182812    -0.35500
O684        O  0.18445448  0.75340111  0.91359930    -0.39800
C685        C  0.17046967  0.54406595  0.95965013    -0.13500
C686        C  0.17902193  0.52657957  0.94985412     0.16900
C687        C  0.17351109  0.52243388  0.92911748     0.03200
C688        C  0.16099965  0.53645231  0.91824000    -0.12000
C689        C  0.15384688  0.55485900  0.92752401    -0.03000
C690        C  0.15809759  0.55820559  0.94873273     0.02400
C691        C  0.19443048  0.51349736  0.96109682     0.09300
N692        N  0.18158256  0.50476305  0.91844623     0.65600
H693        H  0.15788768  0.53340336  0.90201259     0.18500
N694        N  0.15001259  0.57585478  0.95942861     0.76100
H695        H  0.17376549  0.54700294  0.97586018     0.10100
C696        C  0.21220727  0.52242452  0.97034113     0.03800
C697        C  0.22684437  0.50988307  0.98023782    -0.05000
C698        C  0.22445429  0.48823207  0.98124686    -0.23300
C699        C  0.20631585  0.47932378  0.97244915     0.13000
C700        C  0.19157526  0.49197353  0.96253996    -0.12500
N701        N  0.21607387  0.54419878  0.96915987     0.64700
H702        H  0.24049307  0.51732513  0.98680576     0.12500
N703        N  0.20229563  0.45761195  0.97380052     0.61300
H704        H  0.17767886  0.48491004  0.95606363     0.08700
O705        O  0.16185957  0.59087144  0.96369640    -0.40100
O706        O  0.13219808  0.57493499  0.96754972    -0.39300
O707        O  0.16967684  0.48977889  0.91422244    -0.39300
O708        O  0.19928279  0.50572731  0.91009254    -0.37000
O709        O  0.19225643  0.45065173  0.98901823    -0.37900
O710        O  0.20527580  0.44618269  0.95821701    -0.34100
O711        O  0.21451360  0.55524258  0.98522489    -0.35500
O712        O  0.22463589  0.55157797  0.95326883    -0.39800
C713        C  0.07919141  0.66300266  0.97212407    -0.13500
C714        C  0.06201257  0.67487652  0.96593101     0.16900
C715        C  0.05334312  0.67144807  0.94615957     0.03200
C716        C  0.06260344  0.65729909  0.93261660    -0.12000
C717        C  0.08053593  0.64618002  0.93826251    -0.03000
C718        C  0.08834496  0.64857199  0.95865708     0.02400
C719        C  0.05479828  0.69237130  0.97908632     0.09300
N720        N  0.03540413  0.68266403  0.93939383     0.65600
H721        H  0.05605104  0.65566868  0.91721429     0.18500
N722        N  0.10573264  0.63681633  0.96588233     0.76100
H723        H  0.08609274  0.66549796  0.98726678     0.10100
C724        C  0.04884442  0.68972509  0.99989380     0.03800
C725        C  0.04202527  0.70682639  0.01149479    -0.05000
C726        C  0.04097643  0.72670843  0.00271972    -0.23300
C727        C  0.04804297  0.72943471  0.98220059     0.13000
C728        C  0.05480213  0.71236158  0.97070615    -0.12500
N729        N  0.04881394  0.66967664  0.00918324     0.64700
H730        H  0.03666479  0.70430789  0.02719463     0.12500
N731        N  0.04894195  0.74948894  0.97291242     0.61300
H732        H  0.06039801  0.71481143  0.95507083     0.08700
O733        O  0.10269350  0.61921273  0.97373189    -0.40100
O734        O  0.12306434  0.64562474  0.96851260    -0.39300
O735        O  0.03711063  0.69582989  0.92511613    -0.39300
O736        O  0.01754601  0.67676184  0.94490866    -0.37000
O737        O  0.06300146  0.76204275  0.97833531    -0.37900
O738        O  0.03806071  0.75331711  0.95711175    -0.34100
O739        O  0.06175478  0.66557289  0.02329082    -0.35500
O740        O  0.03384783  0.65746316  0.00580288    -0.39800
C741        C  0.20480424  0.55573204  0.81871079    -0.13500
C742        C  0.21379333  0.56816000  0.80345544     0.16900
C743        C  0.20626855  0.58842430  0.80052815     0.03200
C744        C  0.19004956  0.59597562  0.81293456    -0.12000
C745        C  0.18079823  0.58350271  0.82817020    -0.03000
C746        C  0.18845578  0.56308749  0.83098029     0.02400
C747        C  0.22950811  0.55883748  0.78950544     0.09300
N748        N  0.21499799  0.60149299  0.78502591     0.65600
H749        H  0.18451426  0.61165261  0.81042540     0.18500
N750        N  0.17994248  0.54957818  0.84625111     0.76100
H751        H  0.21024124  0.53994760  0.82081549     0.10100
C752        C  0.24907457  0.55227309  0.79688688     0.03800
C753        C  0.26231831  0.54081336  0.78400275    -0.05000
C754        C  0.25612072  0.53512188  0.76393864    -0.23300
C755        C  0.23672083  0.54226143  0.75638647     0.13000
C756        C  0.22376539  0.55416850  0.76912090    -0.12500
N757        N  0.25530825  0.55639950  0.81770706     0.64700
H758        H  0.27704757  0.53534773  0.79017911     0.12500
N759        N  0.22965787  0.53711103  0.73604083     0.61300
H760        H  0.20862361  0.55895371  0.76336301     0.08700
O761        O  0.18826069  0.54866536  0.86391603    -0.40100
O762        O  0.16689473  0.53594253  0.84092766    -0.39300
O763        O  0.20516089  0.60456133  0.76841107    -0.39300
O764        O  0.23068642  0.61247862  0.78927342    -0.37000
O765        O  0.23292094  0.54956369  0.72141022    -0.37900
O766        O  0.21643134  0.52283514  0.73370275    -0.34100
O767        O  0.25404697  0.54224035  0.83104804    -0.35500
O768        O  0.26561481  0.57255010  0.82175903    -0.39800
C769        C  0.00273123  0.53622038  0.80549279    -0.13500
C770        C  0.02386264  0.54010175  0.80185783     0.16900
C771        C  0.03261182  0.53424785  0.78277194     0.03200
C772        C  0.02045960  0.52397179  0.76804741    -0.12000
C773        C  0.99934778  0.51955710  0.77169963    -0.03000
C774        C  0.99039492  0.52617598  0.79062065     0.02400
C775        C  0.03705785  0.54905448  0.81844145     0.09300
N776        N  0.05378649  0.53901529  0.77798014     0.65600
H777        H  0.02769174  0.51958534  0.75354383     0.18500
N778        N  0.96906062  0.52226446  0.79537794     0.76100
H779        H  0.99588026  0.54049981  0.82021281     0.10100
C780        C  0.03292203  0.56866219  0.82708558     0.03800
C781        C  0.04688610  0.57728701  0.84134313    -0.05000
C782        C  0.06509588  0.56667960  0.84728159    -0.23300
C783        C  0.06822926  0.54629710  0.83985221     0.13000
C784        C  0.05431584  0.53777923  0.82548508    -0.12500
N785        N  0.01533389  0.58054771  0.82059080     0.64700
H786        H  0.04396015  0.59289388  0.84686503     0.12500
N787        N  0.08538983  0.53401185  0.84671615     0.61300
H788        H  0.05712892  0.52227997  0.81959194     0.08700
O789        O  0.95594661  0.53673252  0.79382703    -0.40100
O790        O  0.96416535  0.50589583  0.80480094    -0.39300
O791        O  0.06703962  0.52464030  0.77674109    -0.39300
O792        O  0.05845527  0.55693216  0.77178214    -0.37000
O793        O  0.08400826  0.52422337  0.86351073    -0.37900
O794        O  0.10011998  0.53000867  0.83446047    -0.34100
O795        O  0.99990599  0.58245169  0.83248972    -0.35500
O796        O  0.01681072  0.59209775  0.80496547    -0.39800
C797        C  0.08972325  0.69298040  0.79992110    -0.13500
C798        C  0.06902773  0.68816709  0.79478031     0.16900
C799        C  0.05949562  0.67099851  0.80415416     0.03200
C800        C  0.07052345  0.65911545  0.81856324    -0.12000
C801        C  0.09126058  0.66379966  0.82389915    -0.03000
C802        C  0.10093969  0.68089631  0.81422272     0.02400
C803        C  0.05729065  0.70129958  0.77993523     0.09300
N804        N  0.03846321  0.66560463  0.79935672     0.65600
H805        H  0.06272996  0.64600729  0.82560255     0.18500
N806        N  0.12180997  0.68665738  0.81926068     0.76100
H807        H  0.09718109  0.70625685  0.79284248     0.10100
C808        C  0.04754084  0.71967259  0.78649033     0.03800
C809        C  0.03572334  0.73130902  0.77249241    -0.05000
C810        C  0.03311982  0.72501492  0.75173564    -0.23300
C811        C  0.04342189  0.70678040  0.74508154     0.13000
C812        C  0.05528525  0.69511879  0.75919770    -0.12500
N813        N  0.04897461  0.72637820  0.80753063     0.64700
H814        H  0.02820483  0.74526346  0.77814564     0.12500
N815        N  0.04152004  0.69947868  0.72429962     0.61300
H816        H  0.06275495  0.68095607  0.75400152     0.08700
O817        O  0.12502704  0.70078919  0.83241337    -0.40100
O818        O  0.13654987  0.68063885  0.80786286    -0.39300
O819        O  0.03481450  0.65091471  0.78694968    -0.39300
O820        O  0.02382417  0.67301911  0.81004518    -0.37000
O821        O  0.05583283  0.70319391  0.71150990    -0.37900
O822        O  0.02761105  0.68641516  0.71978508    -0.34100
O823        O  0.05976593  0.74209151  0.81204596    -0.35500
O824        O  0.03673495  0.71894730  0.82081279    -0.39800
C825        C  0.94660412  0.95113705  0.81236640    -0.13500
C826        C  0.96767650  0.95103106  0.81819921     0.16900
C827        C  0.97373088  0.93948483  0.83571989     0.03200
C828        C  0.95887099  0.92775516  0.84644291    -0.12000
C829        C  0.93778715  0.92780301  0.84056681    -0.03000
C830        C  0.93170161  0.93977062  0.82333965     0.02400
C831        C  0.98281623  0.96305753  0.80556814     0.09300
N832        N  0.99461784  0.94028089  0.84341382     0.65600
H833        H  0.96379061  0.91890006  0.85981266     0.18500
N834        N  0.91069666  0.93962443  0.81603095     0.76100
H835        H  0.94172748  0.95982062  0.79886656     0.10100
C836        C  0.00003804  0.95365889  0.79563988     0.03800
C837        C  0.01290068  0.96551292  0.78269944    -0.05000
C838        C  0.00842512  0.98639051  0.77869738    -0.23300
C839        C  0.99160609  0.99585805  0.78904582     0.13000
C840        C  0.97912027  0.98423801  0.80240883    -0.12500
N841        N  0.00357433  0.93181725  0.79697231     0.64700
H842        H  0.02553833  0.95795414  0.77452119     0.12500
N843        N  0.98710207  0.01734096  0.78624539     0.61300
H844        H  0.96613186  0.99173478  0.81008268     0.08700
O845        O  0.90496601  0.92591902  0.80327431    -0.40100
O846        O  0.89911962  0.95505269  0.81941027    -0.39300
O847        O  0.00179931  0.95719665  0.85018441    -0.39300
O848        O  0.00431112  0.92367638  0.84705420    -0.37000
O849        O  0.97223251  0.02267076  0.77465150    -0.37900
O850        O  0.99528888  0.03054123  0.79817949    -0.34100
O851        O  0.99058713  0.91946367  0.78900537    -0.35500
O852        O  0.02128829  0.92516235  0.80219176    -0.39800
C853        C  0.83871038  0.94811876  0.95593108    -0.13500
C854        C  0.83030173  0.96522637  0.94561206     0.16900
C855        C  0.83509721  0.96841652  0.92469835     0.03200
C856        C  0.84747275  0.95403288  0.91414063    -0.12000
C857        C  0.85515055  0.93621125  0.92408335    -0.03000
C858        C  0.85119614  0.93372394  0.94548876     0.02400
C859        C  0.81559822  0.97886904  0.95669469     0.09300
N860        N  0.82640612  0.98549703  0.91367914     0.65600
H861        H  0.85017175  0.95637671  0.89776276     0.18500
N862        N  0.85963763  0.91672558  0.95687463     0.76100
H863        H  0.83529316  0.94578446  0.97219048     0.10100
C864        C  0.79550856  0.97178571  0.96134339     0.03800
C865        C  0.78234160  0.98390389  0.97346734    -0.05000
C866        C  0.78874010  0.00323516  0.98135499    -0.23300
C867        C  0.80887531  0.01060156  0.97628480     0.13000
C868        C  0.82200628  0.99838737  0.96382013    -0.12500
N869        N  0.78825096  0.95226656  0.95372363     0.64700
H870        H  0.76684734  0.97803715  0.97665465     0.12500
N871        N  0.81676746  0.02962283  0.98461156     0.61300
H872        H  0.83765037  0.00373773  0.96043071     0.08700
O873        O  0.84771191  0.90266245  0.96338809    -0.40100
O874        O  0.87806655  0.91775202  0.96358768    -0.39300
O875        O  0.83777649  0.00069501  0.90898362    -0.39300
O876        O  0.80836421  0.98403756  0.90606696    -0.37000
O877        O  0.81857026  0.03172647  0.00394240    -0.37900
O878        O  0.82584155  0.04229160  0.97285282    -0.34100
O879        O  0.78658457  0.93712975  0.96589714    -0.35500
O880        O  0.78045951  0.95109356  0.93583334    -0.39800
C881        C  0.97731883  0.82017754  0.99464886    -0.13500
C882        C  0.97433900  0.81480372  0.97380327     0.16900
C883        C  0.98322927  0.79635180  0.96626294     0.03200
C884        C  0.99482951  0.78378743  0.97945354    -0.12000
C885        C  0.99775674  0.78884222  0.00047981    -0.03000
C886        C  0.98879388  0.80740542  0.00803101     0.02400
C887        C  0.96208515  0.82847043  0.95992403     0.09300
N888        N  0.97983076  0.78965002  0.94542069     0.65600
H889        H  0.00101073  0.76947060  0.97310838     0.18500
N890        N  0.99170598  0.81398640  0.02891594     0.76100
H891        H  0.97093647  0.83461244  0.00054127     0.10100
C892        C  0.94155959  0.83433512  0.96480558     0.03800
C893        C  0.92981192  0.84565860  0.95057000    -0.05000
C894        C  0.93793004  0.85106989  0.93112447    -0.23300
C895        C  0.95892791  0.84615454  0.92673314     0.13000
C896        C  0.97076818  0.83509131  0.94116708    -0.12500
N897        N  0.93191376  0.82768884  0.98353854     0.64700
H898        H  0.91378355  0.84921999  0.95443330     0.12500
N899        N  0.96844299  0.85202947  0.90767757     0.61300
H900        H  0.98679424  0.83127533  0.93750913     0.08700
O901        O  0.97598574  0.81683822  0.04024561    -0.40100
O902        O  0.00890083  0.82189037  0.03411117    -0.39300
O903        O  0.99501512  0.78814345  0.93315831    -0.39300
O904        O  0.96234568  0.78238666  0.94021898    -0.37000
O905        O  0.97700519  0.86954972  0.90617556    -0.37900
O906        O  0.97138884  0.83858962  0.89377024    -0.34100
O907        O  0.92717932  0.84084512  0.99721906    -0.35500
O908        O  0.92528285  0.80935574  0.98501661    -0.39800
C909        C  0.95196741  0.80301560  0.75253825    -0.13500
C910        C  0.94619185  0.79573485  0.77213570     0.16900
C911        C  0.95394079  0.77654045  0.77892623     0.03200
C912        C  0.96785469  0.76543715  0.76658825    -0.12000
C913        C  0.97459431  0.77309271  0.74739576    -0.03000
C914        C  0.96620376  0.79201195  0.74018323     0.02400
C915        C  0.93327058  0.80878807  0.78602422     0.09300
N916        N  0.94867339  0.76857871  0.79883501     0.65600
H917        H  0.97376162  0.75085817  0.77235079     0.18500
N918        N  0.97279274  0.80099600  0.72111091     0.76100
H919        H  0.94598769  0.81770243  0.74715080     0.10100
C920        C  0.94021812  0.82850097  0.79241814     0.03800
C921        C  0.92940502  0.83922182  0.80777006    -0.05000
C922        C  0.91146693  0.83086997  0.81691358    -0.23300
C923        C  0.90354880  0.81190920  0.80940402     0.13000
C924        C  0.91460429  0.80093883  0.79418989    -0.12500
N925        N  0.95885637  0.83739120  0.78430327     0.64700
H926        H  0.93545347  0.85405440  0.81296781     0.12500
N927        N  0.88496488  0.80313936  0.81771532     0.61300
H928        H  0.90883837  0.78599821  0.78903626     0.08700
O929        O  0.99134906  0.80712326  0.71926654    -0.40100
O930        O  0.95928339  0.80709969  0.70831135    -0.39300
O931        O  0.93635392  0.75342732  0.80022975    -0.39300
O932        O  0.95882234  0.77438719  0.81454085    -0.37000
O933        O  0.86760323  0.80769330  0.80978763    -0.37900
O934        O  0.88616177  0.78827479  0.83027602    -0.34100
O935        O  0.95761026  0.85232140  0.77181706    -0.35500
O936        O  0.97610947  0.83331560  0.79270682    -0.39800
C937        C  0.78896612  0.91249260  0.82133421    -0.13500
C938        C  0.79541217  0.92562444  0.80527230     0.16900
C939        C  0.81659379  0.92587018  0.79956862     0.03200
C940        C  0.83108643  0.91459283  0.81098926    -0.12000
C941        C  0.82488787  0.90251436  0.82779713    -0.03000
C942        C  0.80355651  0.90086941  0.83260711     0.02400
C943        C  0.78093224  0.94150167  0.79701052     0.09300
N944        N  0.82368131  0.93809291  0.78259268     0.65600
H945        H  0.84747570  0.91570707  0.80701973     0.18500
N946        N  0.79677452  0.88921078  0.85009094     0.76100
H947        H  0.77277301  0.91239866  0.82611802     0.10100
C948        C  0.76163647  0.93638968  0.78791060     0.03800
C949        C  0.74856900  0.95219179  0.78058799    -0.05000
C950        C  0.75463496  0.97308610  0.78182471    -0.23300
C951        C  0.77369126  0.97813817  0.79147607     0.13000
C952        C  0.78644934  0.96242892  0.79911627    -0.12500
N953        N  0.75565502  0.91525822  0.78501922     0.64700
H954        H  0.73405674  0.94802143  0.77299559     0.12500
N955        N  0.78010170  0.99919612  0.79406216     0.61300
H956        H  0.80086544  0.96665446  0.80686816     0.08700
O957        O  0.78662962  0.87268085  0.84739424    -0.40100
O958        O  0.79797558  0.89704993  0.86795764    -0.39300
O959        O  0.83578927  0.95316100  0.78582928    -0.39300
O960        O  0.82087639  0.93166406  0.76435451    -0.37000
O961        O  0.77378519  0.00942655  0.80947926    -0.37900
O962        O  0.79461585  0.00633446  0.78306762    -0.34100
O963        O  0.74032560  0.90805641  0.79481283    -0.35500
O964        O  0.76360725  0.90481835  0.77051738    -0.39800
C965        C  0.91778538  0.18472940  0.72005562    -0.13500
C966        C  0.92187546  0.20554372  0.71547661     0.16900
C967        C  0.91357884  0.21403659  0.69719798     0.03200
C968        C  0.90303260  0.20130927  0.68303499    -0.12000
C969        C  0.90015519  0.18004444  0.68682247    -0.03000
C970        C  0.90692801  0.17199499  0.70609039     0.02400
C971        C  0.93797285  0.21679340  0.72769267     0.09300
N972        N  0.91603325  0.23556059  0.69272831     0.65600
H973        H  0.89744826  0.20810966  0.66874754     0.18500
N974        N  0.90415076  0.15066695  0.71125240     0.76100
H975        H  0.92418842  0.17793807  0.73401756     0.10100
C976        C  0.93621793  0.22001547  0.74917743     0.03800
C977        C  0.95316807  0.22798673  0.76043171    -0.05000
C978        C  0.97210049  0.23291158  0.75065978    -0.23300
C979        C  0.97366765  0.22976717  0.72899669     0.13000
C980        C  0.95666233  0.22197098  0.71786198    -0.12500
N981        N  0.91716319  0.21570834  0.75966306     0.64700
H982        H  0.95134647  0.23057598  0.77691909     0.12500
N983        N  0.99273088  0.23320384  0.71814504     0.61300
H984        H  0.95844952  0.21894200  0.70143122     0.08700
O985        O  0.88952027  0.14550096  0.72315581    -0.40100
O986        O  0.91836781  0.13780238  0.70719073    -0.39300
O987        O  0.92724186  0.24112845  0.67774700    -0.39300
O988        O  0.90439491  0.24863497  0.70151033    -0.37000
O989        O  0.00764428  0.22067913  0.72038244    -0.37900
O990        O  0.99337278  0.24636377  0.70377534    -0.34100
O991        O  0.91636938  0.20111670  0.77256508    -0.35500
O992        O  0.90237875  0.22853927  0.75869102    -0.39800
C993        C  0.94931810  0.21902486  0.52797885    -0.13500
C994        C  0.95411512  0.19789714  0.52615435     0.16900
C995        C  0.96659578  0.19117684  0.50950583     0.03200
C996        C  0.97468013  0.20572115  0.49553995    -0.12000
C997        C  0.97070818  0.22696189  0.49809508    -0.03000
C998        C  0.95749880  0.23352362  0.51420842     0.02400
C999        C  0.94543548  0.18337043  0.54168661     0.09300
N1000       N  0.97228563  0.16988468  0.50740890     0.65600
H1001       H  0.98507717  0.20051500  0.48336906     0.18500
N1002       N  0.95195889  0.25485859  0.51650809     0.76100
H1003       H  0.93908531  0.22431998  0.54025223     0.10100
C1004       C  0.94932891  0.18645646  0.56294262     0.03800
C1005       C  0.93796792  0.17540481  0.57765212    -0.05000
C1006       C  0.92292755  0.16083794  0.57164600    -0.23300
C1007       C  0.91974043  0.15690264  0.55037559     0.13000
C1008       C  0.93100886  0.16817370  0.53558701    -0.12500
N1009       N  0.96469866  0.20096027  0.56978036     0.64700
H1010       H  0.94074941  0.17842010  0.59395178     0.12500
N1011       N  0.90372817  0.14308450  0.54358088     0.61300
H1012       H  0.92757115  0.16592726  0.51929277     0.08700
O1013       O  0.95790142  0.26484254  0.53225696    -0.40100
O1014       O  0.93845423  0.26264465  0.50466141    -0.39300
O1015       O  0.96527815  0.15937899  0.49245178    -0.39300
O1016       O  0.98688460  0.16267547  0.51830263    -0.37000
O1017       O  0.88522361  0.14950114  0.54219937    -0.37900
O1018       O  0.90852967  0.12577281  0.53583312    -0.34100
O1019       O  0.95914485  0.21768358  0.57829180    -0.35500
O1020       O  0.98355913  0.19555527  0.57046353    -0.39800
C1021       C  0.95645953  0.05450651  0.65651027    -0.13500
C1022       C  0.96283310  0.06055168  0.67640706     0.16900
C1023       C  0.95387185  0.07818583  0.68557558     0.03200
C1024       C  0.93834591  0.08911419  0.67513237    -0.12000
C1025       C  0.93147585  0.08296950  0.65537229    -0.03000
C1026       C  0.94106212  0.06570938  0.64582297     0.02400
C1027       C  0.97800378  0.04791386  0.68813309     0.09300
N1028       N  0.96001796  0.08483612  0.70578777     0.65600
H1029       H  0.93149423  0.10250233  0.68269437     0.18500
N1030       N  0.93486730  0.05893547  0.62568776     0.76100
H1031       H  0.96332029  0.04090494  0.64935333     0.10100
C1032       C  0.97136611  0.03041048  0.69912329     0.03800
C1033       C  0.98512221  0.02032475  0.71248983    -0.05000
C1034       C  0.00574177  0.02726178  0.71521903    -0.23300
C1035       C  0.01273597  0.04418342  0.70319425     0.13000
C1036       C  0.99876502  0.05439073  0.68989469    -0.12500
N1037       N  0.95040899  0.02318117  0.69743014     0.64700
H1038       H  0.97941336  0.00710150  0.72109708     0.12500
N1039       N  0.03352407  0.05188557  0.70494398     0.61300
H1040       H  0.00394837  0.06792603  0.68143615     0.08700
O1041       O  0.92217525  0.04412851  0.62382275    -0.40100
O1042       O  0.94470401  0.06521355  0.61004982    -0.39300
O1043       O  0.97179963  0.10035261  0.70781130    -0.39300
O1044       O  0.95105342  0.07744938  0.72145696    -0.37000
O1045       O  0.04484663  0.05268543  0.68904474    -0.37900
O1046       O  0.03888047  0.06179128  0.72094686    -0.34100
O1047       O  0.94635777  0.00766798  0.68620201    -0.35500
O1048       O  0.93663356  0.03028791  0.70938537    -0.39800
C1049       C  0.79338997  0.19782042  0.57568029    -0.13500
C1050       C  0.80332150  0.21630511  0.57010638     0.16900
C1051       C  0.82291768  0.22098891  0.57856229     0.03200
C1052       C  0.83272353  0.20678369  0.59164376    -0.12000
C1053       C  0.82343914  0.18760726  0.59640530    -0.03000
C1054       C  0.80311289  0.18355413  0.58884449     0.02400
C1055       C  0.79338615  0.23007719  0.55473760     0.09300
N1056       N  0.83366359  0.23947577  0.57285615     0.65600
H1057       H  0.84824655  0.21043304  0.59718718     0.18500
N1058       N  0.79215070  0.16506991  0.59421125     0.76100
H1059       H  0.77804986  0.19433054  0.56952190     0.10100
C1060       C  0.79177388  0.22385562  0.53397802     0.03800
C1061       C  0.78120698  0.23630362  0.51983109    -0.05000
C1062       C  0.77183041  0.25506843  0.52587971    -0.23300
C1063       C  0.77391869  0.26160016  0.54674013     0.13000
C1064       C  0.78486478  0.24911863  0.56087238    -0.12500
N1065       N  0.80107620  0.20497666  0.52701987     0.64700
H1066       H  0.78041008  0.23115618  0.50384965     0.12500
N1067       N  0.76409409  0.28006501  0.55417004     0.61300
H1068       H  0.78600299  0.25390243  0.57695478     0.08700
O1069       O  0.78881211  0.15138612  0.58061965    -0.40100
O1070       O  0.78269827  0.16414205  0.61126803    -0.39300
O1071       O  0.83694674  0.25339985  0.58620811    -0.39300
O1072       O  0.84253231  0.24049693  0.55549897    -0.37000
O1073       O  0.74449065  0.28133185  0.55407609    -0.37900
O1074       O  0.77451531  0.29296285  0.56462889    -0.34100
O1075       O  0.78984508  0.18927556  0.52369748    -0.35500
O1076       O  0.81990078  0.20483833  0.52150090    -0.39800
C1077       C  0.80770645  0.00865786  0.54684725    -0.13500
C1078       C  0.81112818  0.02853949  0.53884130     0.16900
C1079       C  0.80179133  0.03409699  0.51999497     0.03200
C1080       C  0.78819124  0.02031652  0.51015064    -0.12000
C1081       C  0.78364221  0.00081383  0.51871681    -0.03000
C1082       C  0.79420611  0.99470152  0.53687337     0.02400
C1083       C  0.82205950  0.04421079  0.55160289     0.09300
N1084       N  0.80515908  0.05410563  0.51123184     0.65600
H1085       H  0.78059900  0.02523919  0.49599304     0.18500
N1086       N  0.79031753  0.97505619  0.54617931     0.76100
H1087       H  0.81481283  0.00431357  0.56143298     0.10100
C1088       C  0.81099628  0.05554363  0.56655010     0.03800
C1089       C  0.82120810  0.07042620  0.57854687    -0.05000
C1090       C  0.84258381  0.07451945  0.57603653    -0.23300
C1091       C  0.85370923  0.06306431  0.56092916     0.13000
C1092       C  0.84335051  0.04806328  0.54885874    -0.12500
N1093       N  0.78923759  0.05216072  0.56961405     0.64700
H1094       H  0.81219233  0.07878664  0.59001654     0.12500
N1095       N  0.87531390  0.06672916  0.55728859     0.61300
H1096       H  0.85192873  0.03945936  0.53723194     0.08700
O1097       O  0.77565660  0.97317387  0.55898598    -0.40100
O1098       O  0.80349704  0.96069015  0.54426379    -0.39300
O1099       O  0.81882798  0.05634919  0.49744184    -0.39300
O1100       O  0.79212882  0.06838506  0.51440736    -0.37000
O1101       O  0.88865410  0.05429601  0.56441490    -0.37900
O1102       O  0.88070193  0.07982642  0.54388854    -0.34100
O1103       O  0.78323516  0.04067050  0.58417063    -0.35500
O1104       O  0.77618811  0.06335084  0.56025646    -0.39800
C1105       C  0.80756686  0.08370568  0.71015763    -0.13500
C1106       C  0.78917988  0.07599595  0.70131108     0.16900
C1107       C  0.78400922  0.08151864  0.68092086     0.03200
C1108       C  0.79780396  0.09358371  0.66933991    -0.12000
C1109       C  0.81693370  0.10026203  0.67769689    -0.03000
C1110       C  0.82138758  0.09580127  0.69865343     0.02400
C1111       C  0.77616853  0.06143423  0.71332354     0.09300
N1112       N  0.76546954  0.07385877  0.67134209     0.65600
H1113       H  0.79391148  0.09682735  0.65334626     0.18500
N1114       N  0.83978815  0.10343528  0.70853754     0.76100
H1115       H  0.81135570  0.08004323  0.72609385     0.10100
C1116       C  0.78456010  0.04259997  0.72025882     0.03800
C1117       C  0.77258358  0.02942176  0.73241514    -0.05000
C1118       C  0.75204523  0.03448469  0.73810241    -0.23300
C1119       C  0.74361999  0.05356551  0.73123123     0.13000
C1120       C  0.75569420  0.06667525  0.71869813    -0.12500
N1121       N  0.80514800  0.03639904  0.71460813     0.64700
H1122       H  0.77948111  0.01483396  0.73711309     0.12500
N1123       N  0.72353610  0.06053449  0.73777199     0.61300
H1124       H  0.74935912  0.08145382  0.71379506     0.08700
O1125       O  0.85408760  0.09100778  0.71353076    -0.40100
O1126       O  0.84019377  0.12178103  0.71533194    -0.39300
O1127       O  0.75064609  0.08609209  0.66752339    -0.39300
O1128       O  0.76507419  0.05567992  0.66411539    -0.37000
O1129       O  0.71130584  0.06860295  0.72479020    -0.37900
O1130       O  0.71990037  0.06274446  0.75682540    -0.34100
O1131       O  0.81936276  0.03602715  0.72809578    -0.35500
O1132       O  0.80840421  0.02861137  0.69698792    -0.39800
C1133       C  0.80991838  0.75762550  0.95103085    -0.13500
C1134       C  0.80052522  0.77602127  0.94433876     0.16900
C1135       C  0.78007542  0.78056168  0.95052308     0.03200
C1136       C  0.76983589  0.76743177  0.96430937    -0.12000
C1137       C  0.77950980  0.74946703  0.97197193    -0.03000
C1138       C  0.79960026  0.74426501  0.96473028     0.02400
C1139       C  0.81292387  0.79138276  0.93275364     0.09300
N1140       N  0.76961338  0.79858051  0.94303364     0.65600
H1141       H  0.75422007  0.77147699  0.96926066     0.18500
N1142       N  0.81032830  0.72635421  0.97210366     0.76100
H1143       H  0.82574595  0.75412135  0.94634858     0.10100
C1144       C  0.82301156  0.80761437  0.94328370     0.03800
C1145       C  0.83452739  0.82220207  0.93224602    -0.05000
C1146       C  0.83651042  0.82098785  0.91057731    -0.23300
C1147       C  0.82645544  0.80444829  0.90006305     0.13000
C1148       C  0.81472300  0.78990987  0.91122157    -0.12500
N1149       N  0.82200265  0.80924317  0.96530976     0.64700
H1150       H  0.84208207  0.83451863  0.94088778     0.12500
N1151       N  0.82815975  0.80195458  0.87818167     0.61300
H1152       H  0.80704226  0.77734723  0.90304496     0.08700
O1153       O  0.81721821  0.71328679  0.95927410    -0.40100
O1154       O  0.81682712  0.72596353  0.99052499    -0.39300
O1155       O  0.75877498  0.79735685  0.92678389    -0.39300
O1156       O  0.76817918  0.81444028  0.95439545    -0.37000
O1157       O  0.84245943  0.79074976  0.87083398    -0.37900
O1158       O  0.81336578  0.80762590  0.86665680    -0.34100
O1159       O  0.83589498  0.80077429  0.97620279    -0.35500
O1160       O  0.80979803  0.82216916  0.97352207    -0.39800
C1161       C  0.55396972  0.95425709  0.17858446    -0.13500
C1162       C  0.53543516  0.94401549  0.18380962     0.16900
C1163       C  0.53159903  0.92426214  0.17530983     0.03200
C1164       C  0.54668564  0.91465197  0.16291624    -0.12000
C1165       C  0.56593149  0.92423779  0.15877959    -0.03000
C1166       C  0.56916864  0.94465576  0.16629212     0.02400
C1167       C  0.52082564  0.95378245  0.19886251     0.09300
N1168       N  0.51301173  0.91318176  0.18019062     0.65600
H1169       H  0.54359095  0.89909373  0.15731129     0.18500
N1170       N  0.58786756  0.95580786  0.16194742     0.76100
H1171       H  0.55686980  0.96976350  0.18446581     0.10100
C1172       C  0.52794713  0.96015852  0.21849252     0.03800
C1173       C  0.51439479  0.97003148  0.23218000    -0.05000
C1174       C  0.49344155  0.97384000  0.22702008    -0.23300
C1175       C  0.48613834  0.96712424  0.20745881     0.13000
C1176       C  0.49984360  0.95722052  0.19361605    -0.12500
N1177       N  0.54886648  0.95625493  0.22499898     0.64700
H1178       H  0.52047177  0.97455245  0.24720981     0.12500
N1179       N  0.46519207  0.97091746  0.20106203     0.61300
H1180       H  0.49417099  0.95264935  0.17844344     0.08700
O1181       O  0.60170349  0.95749417  0.17573085    -0.40100
O1182       O  0.58874386  0.96714569  0.14611979    -0.39300
O1183       O  0.49939651  0.91024312  0.16640075    -0.39300
O1184       O  0.51159523  0.90382653  0.19722532    -0.37000
O1185       O  0.46028695  0.98837952  0.19382177    -0.37900
O1186       O  0.45250516  0.95604870  0.19973130    -0.34100
O1187       O  0.56108563  0.97124108  0.22819987    -0.35500
O1188       O  0.55398278  0.93832422  0.23081803    -0.39800
C1189       C  0.71241686  0.90503140  0.19900586    -0.13500
C1190       C  0.70969591  0.92595729  0.20418205     0.16900
C1191       C  0.69192338  0.93649421  0.19720541     0.03200
C1192       C  0.67721788  0.92617766  0.18510900    -0.12000
C1193       C  0.67991753  0.90531556  0.17923729    -0.03000
C1194       C  0.69776970  0.89464226  0.18651111     0.02400
C1195       C  0.72561092  0.93732630  0.21618349     0.09300
N1196       N  0.68900030  0.95799714  0.20170721     0.65600
H1197       H  0.66376371  0.93488467  0.17991244     0.18500
N1198       N  0.70175405  0.87364262  0.18071587     0.76100
H1199       H  0.72620293  0.89688868  0.20427037     0.10100
C1200       C  0.72355534  0.93991647  0.23769356     0.03800
C1201       C  0.73568353  0.95471695  0.24800471    -0.05000
C1202       C  0.75033546  0.96658184  0.23723449    -0.23300
C1203       C  0.75341159  0.96298023  0.21595775     0.13000
C1204       C  0.74085864  0.94856385  0.20554506    -0.12500
N1205       N  0.70871308  0.92810066  0.24907051     0.64700
H1206       H  0.73333678  0.95729326  0.26442946     0.12500
N1207       N  0.76798617  0.97502803  0.20446318     0.61300
H1208       H  0.74233142  0.94682924  0.18891457     0.08700
O1209       O  0.69861131  0.85932944  0.19357210    -0.40100
O1210       O  0.71191202  0.86985051  0.16445826    -0.39300
O1211       O  0.69640425  0.97144809  0.18967357    -0.39300
O1212       O  0.67632006  0.96341867  0.21557671    -0.37000
O1213       O  0.78659231  0.96897723  0.20291347    -0.37900
O1214       O  0.76157602  0.98961725  0.19318404    -0.34100
O1215       O  0.71421290  0.91123750  0.25723583    -0.35500
O1216       O  0.69145829  0.93607282  0.25389685    -0.39800
C1217       C  0.67311436  0.96928148  0.07480031    -0.13500
C1218       C  0.67961385  0.96359954  0.05489520     0.16900
C1219       C  0.67300458  0.94444945  0.04666502     0.03200
C1220       C  0.66102182  0.93097926  0.05869705    -0.12000
C1221       C  0.65527213  0.93610815  0.07907617    -0.03000
C1222       C  0.66103779  0.95587405  0.08688640     0.02400
C1223       C  0.69553197  0.97638844  0.04419938     0.09300
N1224       N  0.67858023  0.93836391  0.02614175     0.65600
H1225       H  0.65661075  0.91614087  0.05208343     0.18500
N1226       N  0.65572215  0.96226358  0.10738149     0.76100
H1227       H  0.67831949  0.98385630  0.08145286     0.10100
C1228       C  0.69233809  0.99752260  0.03975368     0.03800
C1229       C  0.70849113  0.00933081  0.03118005    -0.05000
C1230       C  0.72798169  0.00044135  0.02676787    -0.23300
C1231       C  0.73115118  0.97924908  0.03147616     0.13000
C1232       C  0.71500820  0.96755805  0.04003561    -0.12500
N1233       N  0.67257089  0.00702057  0.04324963     0.64700
H1234       H  0.70554318  0.02546270  0.02750447     0.12500
N1235       N  0.75092545  0.96951812  0.02856595     0.61300
H1236       H  0.71794369  0.95150200  0.04406614     0.08700
O1237       O  0.64002274  0.97366728  0.11019306    -0.40100
O1238       O  0.66872329  0.95993953  0.12184246    -0.39300
O1239       O  0.69142376  0.92381961  0.02343158    -0.39300
O1240       O  0.66796186  0.94480772  0.01104540    -0.37000
O1241       O  0.76481977  0.97140152  0.04226298    -0.37900
O1242       O  0.75323141  0.95635554  0.01427888    -0.34100
O1243       O  0.67055861  0.02012238  0.05763145    -0.35500
O1244       O  0.65840706  0.00520874  0.02982085    -0.39800
C1245       C  0.56261949  0.79202784  0.24481312    -0.13500
C1246       C  0.56948126  0.78344213  0.22606392     0.16900
C1247       C  0.56518706  0.76250004  0.22172973     0.03200
C1248       C  0.55272085  0.75105524  0.23525796    -0.12000
C1249       C  0.54461180  0.75999805  0.25340150    -0.03000
C1250       C  0.55032440  0.78051403  0.25853751     0.02400
C1251       C  0.57926258  0.79704892  0.21039798     0.09300
N1252       N  0.57246260  0.75297583  0.20312707     0.65600
H1253       H  0.54882069  0.73519161  0.23120919     0.18500
N1254       N  0.54253043  0.79044916  0.27671494     0.76100
H1255       H  0.56602694  0.80812012  0.24835110     0.10100
C1256       C  0.56748974  0.81255961  0.20057635     0.03800
C1257       C  0.57675758  0.82533103  0.18582163    -0.05000
C1258       C  0.59791311  0.82327063  0.18060155    -0.23300
C1259       C  0.60981237  0.80782782  0.19072734     0.13000
C1260       C  0.60034255  0.79475101  0.20529689    -0.12500
N1261       N  0.54593915  0.81534248  0.20526763     0.64700
H1262       H  0.56722332  0.83709784  0.17851704     0.12500
N1263       N  0.63145587  0.80517383  0.18646475     0.61300
H1264       H  0.60956766  0.78291961  0.21288755     0.08700
O1265       O  0.52389781  0.79661566  0.27711999    -0.40100
O1266       O  0.55517202  0.79702167  0.29017705    -0.39300
O1267       O  0.58856849  0.74179974  0.20361370    -0.39300
O1268       O  0.56092964  0.75266814  0.18731604    -0.37000
O1269       O  0.64475390  0.81439473  0.19754853    -0.37900
O1270       O  0.63725618  0.79092819  0.17437517    -0.34100
O1271       O  0.54044763  0.82978581  0.21726944    -0.35500
O1272       O  0.53235383  0.80580177  0.19482440    -0.39800
C1273       C  0.70397713  0.75785936  0.05407628    -0.13500
C1274       C  0.71133322  0.77783139  0.05860008     0.16900
C1275       C  0.73059348  0.78419479  0.05055546     0.03200
C1276       C  0.74187444  0.77089899  0.03764231    -0.12000
C1277       C  0.73442071  0.75101541  0.03257733    -0.03000
C1278       C  0.71540792  0.74435663  0.04132808     0.02400
C1279       C  0.69824960  0.79245232  0.07058252     0.09300
N1280       N  0.73855368  0.80442261  0.05485917     0.65600
H1281       H  0.75650531  0.77633683  0.03130782     0.18500
N1282       N  0.70699862  0.72438920  0.03668633     0.76100
H1283       H  0.68908115  0.75287710  0.06017446     0.10100
C1284       C  0.68206347  0.80334378  0.06084474     0.03800
C1285       C  0.67055566  0.81797018  0.07196459    -0.05000
C1286       C  0.67466060  0.82205250  0.09299769    -0.23300
C1287       C  0.69058259  0.81059906  0.10292722     0.13000
C1288       C  0.70234150  0.79610350  0.09159951    -0.12500
N1289       N  0.67739959  0.79996943  0.03948410     0.64700
H1290       H  0.65825876  0.82620220  0.06393875     0.12500
N1291       N  0.69527993  0.81369430  0.12431096     0.61300
H1292       H  0.71479250  0.78770888  0.09921791     0.08700
O1293       O  0.69375469  0.72246972  0.02237437    -0.40100
O1294       O  0.70978135  0.70968656  0.04919289    -0.39300
O1295       O  0.75260443  0.80673129  0.06832810    -0.39300
O1296       O  0.73389337  0.81931739  0.04314933    -0.37000
O1297       O  0.68736512  0.80183706  0.13762455    -0.37900
O1298       O  0.71004568  0.82554071  0.12944551    -0.34100
O1299       O  0.66202484  0.78885631  0.03448314    -0.35500
O1300       O  0.68633644  0.81076065  0.02591249    -0.39800
C1301       C  0.25713850  0.55730376  0.19988116    -0.13500
C1302       C  0.27313095  0.56640771  0.21163967     0.16900
C1303       C  0.27426262  0.56230133  0.23298035     0.03200
C1304       C  0.26069980  0.54788253  0.24178761    -0.12000
C1305       C  0.24552741  0.53773197  0.22981298    -0.03000
C1306       C  0.24331443  0.54302203  0.20879230     0.02400
C1307       C  0.29016249  0.57754862  0.20091344     0.09300
N1308       N  0.28913499  0.57263686  0.24585180     0.65600
H1309       H  0.26227906  0.54428582  0.25810587     0.18500
N1310       N  0.22846144  0.53270215  0.19590889     0.76100
H1311       H  0.25623836  0.56028087  0.18339683     0.10100
C1312       C  0.30975215  0.56807252  0.19835202     0.03800
C1313       C  0.32524812  0.57801745  0.18695386    -0.05000
C1314       C  0.32163975  0.59723163  0.17741937    -0.23300
C1315       C  0.30212139  0.60696450  0.18040190     0.13000
C1316       C  0.28661011  0.59706714  0.19211323    -0.12500
N1317       N  0.31365229  0.54764020  0.20593153     0.64700
H1318       H  0.34003625  0.57017296  0.18491585     0.12500
N1319       N  0.29727176  0.62614457  0.17056772     0.61300
H1320       H  0.27151535  0.60437817  0.19385216     0.08700
O1321       O  0.21434841  0.54305257  0.18712365    -0.40100
O1322       O  0.23166737  0.51420638  0.19039073    -0.39300
O1323       O  0.28524982  0.59071801  0.25224090    -0.39300
O1324       O  0.30349731  0.56237036  0.25433359    -0.37000
O1325       O  0.28926871  0.62600479  0.15273347    -0.37900
O1326       O  0.29709572  0.64264169  0.18108767    -0.34100
O1327       O  0.30606302  0.53227353  0.19644394    -0.35500
O1328       O  0.32789186  0.54477103  0.21908113    -0.39800
C1329       C  0.31902250  0.49370379  0.04427646    -0.13500
C1330       C  0.31388811  0.51453013  0.04744422     0.16900
C1331       C  0.29527122  0.52228996  0.03922199     0.03200
C1332       C  0.28211338  0.50927885  0.02794071    -0.12000
C1333       C  0.28708167  0.48825868  0.02427973    -0.03000
C1334       C  0.30598710  0.48058237  0.03262476     0.02400
C1335       C  0.32816835  0.52840376  0.05887099     0.09300
N1336       N  0.28937199  0.54338886  0.04252622     0.65600
H1337       H  0.26776090  0.51591397  0.02211323     0.18500
N1338       N  0.31303614  0.46008672  0.02841386     0.76100
H1339       H  0.33359377  0.48775743  0.05035576     0.10100
C1340       C  0.32941748  0.52784464  0.08055797     0.03800
C1341       C  0.34104740  0.54286119  0.09113355    -0.05000
C1342       C  0.35139338  0.55871684  0.08039336    -0.23300
C1343       C  0.35122030  0.55836603  0.05852405     0.13000
C1344       C  0.33950063  0.54335526  0.04799881    -0.12500
N1345       N  0.31770350  0.51304848  0.09206813     0.64700
H1346       H  0.34089730  0.54280948  0.10790875     0.12500
N1347       N  0.36294249  0.57301652  0.04680640     0.61300
H1348       H  0.33890458  0.54359264  0.03122780     0.08700
O1349       O  0.31694895  0.44822638  0.04339731    -0.40100
O1350       O  0.32141926  0.45650180  0.01115386    -0.39300
O1351       O  0.29171895  0.55646603  0.02826753    -0.39300
O1352       O  0.27949214  0.54836170  0.05863588    -0.37000
O1353       O  0.38209042  0.56992294  0.04377206    -0.37900
O1354       O  0.35361863  0.58685836  0.03663845    -0.34100
O1355       O  0.32687338  0.49801596  0.10054189    -0.35500
O1356       O  0.29885151  0.51660429  0.09620588    -0.39800
C1357       C  0.30011908  0.68334086  0.06845480    -0.13500
C1358       C  0.30792983  0.70355493  0.06668579     0.16900
C1359       C  0.32442004  0.70983123  0.07974075     0.03200
C1360       C  0.33354022  0.69551709  0.09332095    -0.12000
C1361       C  0.32674592  0.67486326  0.09379693    -0.03000
C1362       C  0.30950275  0.66895852  0.08161734     0.02400
C1363       C  0.29903469  0.71741806  0.05061636     0.09300
N1364       N  0.33319270  0.73009261  0.07812586     0.65600
H1365       H  0.34702745  0.70016888  0.10236715     0.18500
N1366       N  0.30161169  0.64826890  0.08220093     0.76100
H1367       H  0.28694638  0.67848895  0.05905512     0.10100
C1368       C  0.29813715  0.71098759  0.02976163     0.03800
C1369       C  0.28792605  0.72319895  0.01515407    -0.05000
C1370       C  0.27846072  0.74201724  0.02064184    -0.23300
C1371       C  0.27981707  0.74877676  0.04146497     0.13000
C1372       C  0.29006799  0.73645805  0.05618106    -0.12500
N1373       N  0.30776540  0.69213439  0.02315185     0.64700
H1374       H  0.28760211  0.71786278  0.99914531     0.12500
N1375       N  0.26988251  0.76741673  0.04817644     0.61300
H1376       H  0.29031994  0.74144943  0.07227884     0.08700
O1377       O  0.30499959  0.63613301  0.06724220    -0.40100
O1378       O  0.28828858  0.64343759  0.09565338    -0.39300
O1379       O  0.33022080  0.74314375  0.09238548    -0.39300
O1380       O  0.34671220  0.73367848  0.06447438    -0.37000
O1381       O  0.25085549  0.76709867  0.05296554    -0.37900
O1382       O  0.28078578  0.78301438  0.05283292    -0.34100
O1383       O  0.29661489  0.67714183  0.01722592    -0.35500
O1384       O  0.32711900  0.69172420  0.01991197    -0.39800
C1385       C  0.45026700  0.69729044  0.24661729    -0.13500
C1386       C  0.45467627  0.69404212  0.22565761     0.16900
C1387       C  0.47392131  0.70065019  0.21769438     0.03200
C1388       C  0.48830670  0.71051423  0.23063240    -0.12000
C1389       C  0.48393606  0.71427516  0.25163028    -0.03000
C1390       C  0.46464435  0.70731606  0.25964606     0.02400
C1391       C  0.43930246  0.68356827  0.21211142     0.09300
N1392       N  0.47876393  0.69813714  0.19626409     0.65600
H1393       H  0.50293369  0.71554037  0.22397660     0.18500
N1394       N  0.45904297  0.71084233  0.28072284     0.76100
H1395       H  0.43548732  0.69215984  0.25286024     0.10100
C1396       C  0.44268492  0.66312781  0.20533229     0.03800
C1397       C  0.42980917  0.65459068  0.19012913    -0.05000
C1398       C  0.41305700  0.66582139  0.18177376    -0.23300
C1399       C  0.40874904  0.68577299  0.18959816     0.13000
C1400       C  0.42206921  0.69460911  0.20451241    -0.12500
N1401       N  0.45904872  0.65080551  0.21388311     0.64700
H1402       H  0.43299008  0.63896468  0.18473464     0.12500
N1403       N  0.39173324  0.69762883  0.18176685     0.61300
H1404       H  0.41931675  0.71035500  0.20974682     0.08700
O1405       O  0.45969126  0.69604105  0.29339927    -0.40100
O1406       O  0.44988063  0.72741545  0.28568206    -0.39300
O1407       O  0.47186242  0.71106744  0.18337151    -0.39300
O1408       O  0.49307049  0.68585672  0.19091827    -0.37000
O1409       O  0.37428708  0.69670209  0.19063615    -0.37900
O1410       O  0.39505507  0.71163930  0.16862801    -0.34100
O1411       O  0.45611743  0.64164195  0.23083068    -0.35500
O1412       O  0.47419813  0.64550818  0.20266319    -0.39800
C1413       C  0.54566521  0.82399463  0.05901328    -0.13500
C1414       C  0.55407015  0.82167032  0.03909626     0.16900
C1415       C  0.57194610  0.83312166  0.03391171     0.03200
C1416       C  0.58182739  0.84544477  0.04890365    -0.12000
C1417       C  0.57425030  0.84683553  0.06931992    -0.03000
C1418       C  0.55540585  0.83648530  0.07402307     0.02400
C1419       C  0.54456226  0.80648554  0.02438603     0.09300
N1420       N  0.58100252  0.83143737  0.01382673     0.65600
H1421       H  0.59607524  0.85333033  0.04461576     0.18500
N1422       N  0.54603338  0.83820244  0.09397031     0.76100
H1423       H  0.53154528  0.81574186  0.06306181     0.10100
C1424       C  0.54296576  0.78539915  0.02972571     0.03800
C1425       C  0.53284454  0.77148192  0.01647706    -0.05000
C1426       C  0.52432818  0.77791069  0.99751833    -0.23300
C1427       C  0.52635571  0.79894098  0.99184494     0.13000
C1428       C  0.53638662  0.81300981  0.00528668    -0.12500
N1429       N  0.55201680  0.77777121  0.04841496     0.64700
H1430       H  0.53178038  0.75536465  0.02106687     0.12500
N1431       N  0.51714538  0.80652575  0.97323417     0.61300
H1432       H  0.53723929  0.82923263  0.00105951     0.08700
O1433       O  0.54812324  0.82369926  0.10683806    -0.40100
O1434       O  0.53269869  0.85218130  0.09724244    -0.39300
O1435       O  0.57826705  0.84576988  0.00088817    -0.39300
O1436       O  0.59470793  0.81784791  0.01045613    -0.37000
O1437       O  0.49859904  0.81295554  0.97345947    -0.37900
O1438       O  0.52848259  0.81020442  0.95777204    -0.34100
O1439       O  0.54041316  0.77187798  0.06297068    -0.35500
O1440       O  0.57120531  0.77364054  0.04896968    -0.39800
C1441       C  0.46426856  0.68328612  0.00327462    -0.13500
C1442       C  0.45429266  0.69083008  0.02099409     0.16900
C1443       C  0.45586211  0.71192288  0.02610045     0.03200
C1444       C  0.46790236  0.72506530  0.01390667    -0.12000
C1445       C  0.47850497  0.71759935  0.99641658    -0.03000
C1446       C  0.47649036  0.69641622  0.99095729     0.02400
C1447       C  0.44384723  0.67636303  0.03519555     0.09300
N1448       N  0.44541334  0.72012747  0.04380465     0.65600
H1449       H  0.46895087  0.74130268  0.01818766     0.18500
N1450       N  0.48778679  0.68764477  0.97399489     0.76100
H1451       H  0.46330300  0.66691072  0.99954604     0.10100
C1452       C  0.42285098  0.67090032  0.03258057     0.03800
C1453       C  0.41303093  0.65853998  0.04738141    -0.05000
C1454       C  0.42380657  0.65156191  0.06503510    -0.23300
C1455       C  0.44524776  0.65628750  0.06698361     0.13000
C1456       C  0.45497575  0.66869868  0.05215514    -0.12500
N1457       N  0.41111869  0.67846768  0.01540128     0.64700
H1458       H  0.39661644  0.65515363  0.04541163     0.12500
N1459       N  0.45741085  0.64861274  0.08382373     0.61300
H1460       H  0.47128530  0.67264593  0.05403580     0.08700
O1461       O  0.47874135  0.67527289  0.96177305    -0.40100
O1462       O  0.50739498  0.68882606  0.97372775    -0.39300
O1463       O  0.45527214  0.72270059  0.06050642    -0.39300
O1464       O  0.42730180  0.72744947  0.04193953    -0.37000
O1465       O  0.46587597  0.63102808  0.08238818    -0.37900
O1466       O  0.46267227  0.66068742  0.09830433    -0.34100
O1467       O  0.40597496  0.66623098  0.00102005    -0.35500
O1468       O  0.40302990  0.69625877  0.01627361    -0.39800
C1469       C  0.46949803  0.54274516  0.22101666    -0.13500
C1470       C  0.47597029  0.54215686  0.20033611     0.16900
C1471       C  0.49579734  0.53409336  0.19561406     0.03200
C1472       C  0.50849515  0.52634167  0.21146196    -0.12000
C1473       C  0.50172283  0.52622593  0.23212835    -0.03000
C1474       C  0.48209359  0.53496174  0.23686367     0.02400
C1475       C  0.46234023  0.55142077  0.18425570     0.09300
N1476       N  0.50283146  0.53282208  0.17469883     0.65600
H1477       H  0.52340973  0.51956991  0.20739053     0.18500
N1478       N  0.47500578  0.53675268  0.25773529     0.76100
H1479       H  0.45464619  0.54973676  0.22497248     0.10100
C1480       C  0.44154586  0.54492472  0.18173709     0.03800
C1481       C  0.42816970  0.55585634  0.16862460    -0.05000
C1482       C  0.43500271  0.57342682  0.15778208    -0.23300
C1483       C  0.45616163  0.57944296  0.15975351     0.13000
C1484       C  0.46951585  0.56841689  0.17288149    -0.12500
N1485       N  0.43372385  0.52734386  0.19261188     0.64700
H1486       H  0.41213349  0.55072921  0.16732892     0.12500
N1487       N  0.46413515  0.59735131  0.14952718     0.61300
H1488       H  0.48539714  0.57380055  0.17494383     0.08700
O1489       O  0.48219692  0.55091262  0.26920029    -0.40100
O1490       O  0.45925828  0.52664497  0.26351911    -0.39300
O1491       O  0.51839337  0.54327569  0.16903954    -0.39300
O1492       O  0.49550912  0.51906868  0.16283107    -0.37000
O1493       O  0.46417507  0.61460582  0.15876731    -0.37900
O1494       O  0.47424333  0.59526615  0.13294365    -0.34100
O1495       O  0.42035766  0.52982030  0.20667662    -0.35500
O1496       O  0.43743913  0.50936552  0.18585379    -0.39800
C1497       C  0.30461430  0.47141198  0.48489619    -0.13500
C1498       C  0.30776632  0.47577331  0.46392863     0.16900
C1499       C  0.29917008  0.49410000  0.45565695     0.03200
C1500       C  0.28775275  0.50763314  0.46836866    -0.12000
C1501       C  0.28411882  0.50302982  0.48928134    -0.03000
C1502       C  0.29286064  0.48467523  0.49752450     0.02400
C1503       C  0.31854270  0.46018829  0.45066382     0.09300
N1504       N  0.30152943  0.49894759  0.43425509     0.65600
H1505       H  0.28095372  0.52141732  0.46156584     0.18500
N1506       N  0.28979502  0.47909683  0.51865186     0.76100
H1507       H  0.31082313  0.45721595  0.49141436     0.10100
C1508       C  0.33931092  0.45410077  0.45439642     0.03800
C1509       C  0.34860367  0.43870366  0.44208521    -0.05000
C1510       C  0.33745641  0.42874090  0.42617199    -0.23300
C1511       C  0.31647628  0.43467631  0.42272283     0.13000
C1512       C  0.30735743  0.45025550  0.43486307    -0.12500
N1513       N  0.35122613  0.46355087  0.47053973     0.64700
H1514       H  0.36464660  0.43440722  0.44514601     0.12500
N1515       N  0.30423913  0.42534288  0.40672935     0.61300
H1516       H  0.29121365  0.45440513  0.43211580     0.08700
O1517       O  0.30154233  0.48663894  0.53240421    -0.40100
O1518       O  0.27830118  0.46386362  0.52296239    -0.39300
O1519       O  0.28657432  0.49583143  0.42195031    -0.39300
O1520       O  0.31681147  0.50973308  0.42848731    -0.37000
O1521       O  0.29192476  0.41078938  0.41113402    -0.37900
O1522       O  0.30277652  0.43411530  0.38938273    -0.34100
O1523       O  0.35461266  0.45370861  0.48703042    -0.35500
O1524       O  0.36143855  0.47981158  0.46685462    -0.39800
C1525       C  0.49741022  0.45381406  0.31580206    -0.13500
C1526       C  0.47883084  0.46274318  0.32292577     0.16900
C1527       C  0.47416742  0.48332346  0.31747125     0.03200
C1528       C  0.48710137  0.49395491  0.30369195    -0.12000
C1529       C  0.50500120  0.48456367  0.29539897    -0.03000
C1530       C  0.51057898  0.46455658  0.30228847     0.02400
C1531       C  0.46324288  0.44957744  0.33357528     0.09300
N1532       N  0.45565769  0.49315382  0.32477496     0.65600
H1533       H  0.48273010  0.50946121  0.29893350     0.18500
N1534       N  0.52868666  0.45430806  0.29457275     0.76100
H1535       H  0.50124258  0.43801719  0.32004699     0.10100
C1536       C  0.45367273  0.43314577  0.32282842     0.03800
C1537       C  0.43816476  0.42148306  0.33235400    -0.05000
C1538       C  0.43174915  0.42562604  0.35274569    -0.23300
C1539       C  0.44193935  0.44160491  0.36387102     0.13000
C1540       C  0.45740720  0.45356817  0.35413806    -0.12500
N1541       N  0.45903243  0.42857576  0.30186114     0.64700
H1542       H  0.43096029  0.40910515  0.32349512     0.12500
N1543       N  0.43653921  0.44616923  0.38480386     0.61300
H1544       H  0.46484001  0.46606584  0.36262993     0.08700
O1545       O  0.52712972  0.44216598  0.27931497    -0.40100
O1546       O  0.54523484  0.45452435  0.30511131    -0.39300
O1547       O  0.45665165  0.50544644  0.33995764    -0.39300
O1548       O  0.43921965  0.49226204  0.31410312    -0.37000
O1549       O  0.44750310  0.43897928  0.39931170    -0.37900
O1550       O  0.42332444  0.46011660  0.38862508    -0.34100
O1551       O  0.47031670  0.41307852  0.29785795    -0.35500
O1552       O  0.44969149  0.43773673  0.28735346    -0.39800
C1553       C  0.31658731  0.27717727  0.40310126    -0.13500
C1554       C  0.29724825  0.28262388  0.41145316     0.16900
C1555       C  0.28969233  0.30285443  0.40862525     0.03200
C1556       C  0.30231502  0.31783589  0.39941299    -0.12000
C1557       C  0.32263065  0.31307287  0.39282521    -0.03000
C1558       C  0.32927866  0.29211563  0.39370465     0.02400
C1559       C  0.28781910  0.26911442  0.42729177     0.09300
N1560       N  0.26971201  0.30869859  0.41635302     0.65600
H1561       H  0.29646901  0.33356381  0.39845360     0.18500
N1562       N  0.34925037  0.28588089  0.38624332     0.76100
H1563       H  0.32252897  0.26159038  0.40522880     0.10100
C1564       C  0.27768849  0.25033497  0.42252043     0.03800
C1565       C  0.26994576  0.23791830  0.43858551    -0.05000
C1566       C  0.27199293  0.24415859  0.45934300    -0.23300
C1567       C  0.28270509  0.26269882  0.46396800     0.13000
C1568       C  0.29037627  0.27495395  0.44799998    -0.12500
N1569       N  0.27429711  0.24424487  0.40152520     0.64700
H1570       H  0.26154875  0.22381056  0.43478793     0.12500
N1571       N  0.28672403  0.26883648  0.48486264     0.61300
H1572       H  0.29877201  0.28907203  0.45181559     0.08700
O1573       O  0.35081338  0.27825350  0.36832218    -0.40100
O1574       O  0.36426124  0.28418712  0.39874005    -0.39300
O1575       O  0.26837526  0.31968710  0.43246970    -0.39300
O1576       O  0.25368032  0.30536546  0.40554441    -0.37000
O1577       O  0.30128004  0.26026804  0.49478446    -0.37900
O1578       O  0.27842336  0.28506353  0.49199676    -0.34100
O1579       O  0.28299661  0.22816478  0.39453447    -0.35500
O1580       O  0.26001937  0.25279137  0.39119232    -0.39800
C1581       C  0.30971727  0.43041727  0.29633052    -0.13500
C1582       C  0.29039999  0.43513333  0.30528787     0.16900
C1583       C  0.28517190  0.42633526  0.32442375     0.03200
C1584       C  0.29938412  0.41346140  0.33451056    -0.12000
C1585       C  0.31916843  0.40930301  0.32608188    -0.03000
C1586       C  0.32411167  0.41767460  0.30650253     0.02400
C1587       C  0.27598614  0.44946077  0.29458580     0.09300
N1588       N  0.26602040  0.43141672  0.33443416     0.65600
H1589       H  0.29512691  0.40745775  0.34956485     0.18500
N1590       N  0.34359405  0.41348657  0.29672341     0.76100
H1591       H  0.31371800  0.43683885  0.28136943     0.10100
C1592       C  0.28212105  0.46985488  0.29005951     0.03800
C1593       C  0.26879525  0.48279952  0.27898114    -0.05000
C1594       C  0.24907991  0.47597175  0.27235042    -0.23300
C1595       C  0.24278224  0.45557421  0.27717148     0.13000
C1596       C  0.25624855  0.44254575  0.28824843    -0.12500
N1597       N  0.30163061  0.47782896  0.29718109     0.64700
H1598       H  0.27388423  0.49850474  0.27585304     0.12500
N1599       N  0.22334883  0.44748623  0.27001249     0.61300
H1600       H  0.25150366  0.42674429  0.29143706     0.08700
O1601       O  0.35780463  0.42697673  0.29716156    -0.40100
O1602       O  0.34520197  0.39817554  0.28464819    -0.39300
O1603       O  0.25212215  0.41776348  0.33641979    -0.39300
O1604       O  0.26437322  0.44835544  0.34409320    -0.37000
O1605       O  0.22183285  0.44064741  0.25176789    -0.37900
O1606       O  0.20886046  0.44416921  0.28271867    -0.34100
O1607       O  0.31559048  0.48249079  0.28431536    -0.35500
O1608       O  0.30369383  0.48312675  0.31587294    -0.39800
C1609       C  0.42422517  0.32760719  0.28324779    -0.13500
C1610       C  0.43193231  0.30785297  0.28785516     0.16900
C1611       C  0.42702805  0.29889822  0.30711501     0.03200
C1612       C  0.41508939  0.31005195  0.32150368    -0.12000
C1613       C  0.40808852  0.33028912  0.31732662    -0.03000
C1614       C  0.41242803  0.33883298  0.29762938     0.02400
C1615       C  0.44633903  0.29772309  0.27296264     0.09300
N1616       N  0.43517573  0.27911410  0.31287553     0.65600
H1617       H  0.41200030  0.30304897  0.33640535     0.18500
N1618       N  0.40569051  0.35917745  0.29213593     0.76100
H1619       H  0.42785016  0.33462064  0.26845875     0.10100
C1620       C  0.44179903  0.27848812  0.26345289     0.03800
C1621       C  0.45649226  0.26925893  0.25025547    -0.05000
C1622       C  0.47535875  0.27919899  0.24592509    -0.23300
C1623       C  0.47962095  0.29860240  0.25488824     0.13000
C1624       C  0.46522931  0.30765213  0.26839130    -0.12500
N1625       N  0.42219166  0.26847126  0.26654914     0.64700
H1626       H  0.45322640  0.25425934  0.24343272     0.12500
N1627       N  0.49860549  0.30920411  0.25041596     0.61300
H1628       H  0.46886227  0.32245055  0.27546578     0.08700
O1629       O  0.38948601  0.36139824  0.28131193    -0.40100
O1630       O  0.41777914  0.37436492  0.29480714    -0.39300
O1631       O  0.45432549  0.27728721  0.31684837    -0.39300
O1632       O  0.42286295  0.26473956  0.31783703    -0.37000
O1633       O  0.50121624  0.31741132  0.23293295    -0.37900
O1634       O  0.51329053  0.30918448  0.26339332    -0.34100
O1635       O  0.40573909  0.27702312  0.26016146    -0.35500
O1636       O  0.42165524  0.24976056  0.27212378    -0.39800
C1637       C  0.43705226  0.30338049  0.50325849    -0.13500
C1638       C  0.44801177  0.31286339  0.48705098     0.16900
C1639       C  0.46958447  0.30929739  0.48528528     0.03200
C1640       C  0.47932014  0.29490170  0.49826494    -0.12000
C1641       C  0.46807428  0.28437727  0.51357904    -0.03000
C1642       C  0.44694887  0.28936132  0.51661675     0.02400
C1643       C  0.43644225  0.32426329  0.47068402     0.09300
N1644       N  0.48155868  0.31929290  0.46962836     0.65600
H1645       H  0.49568048  0.29142794  0.49593372     0.18500
N1646       N  0.43496018  0.27903406  0.53202802     0.76100
H1647       H  0.42049841  0.30620589  0.50498115     0.10100
C1648       C  0.42195416  0.31378228  0.45804630     0.03800
C1649       C  0.41238413  0.32407640  0.44160431    -0.05000
C1650       C  0.41667308  0.34499303  0.43732693    -0.23300
C1651       C  0.43061610  0.35576788  0.45049868     0.13000
C1652       C  0.44046711  0.34530219  0.46689033    -0.12500
N1653       N  0.41730602  0.29238714  0.46128456     0.64700
H1654       H  0.40146815  0.31547525  0.43204933     0.12500
N1655       N  0.43539616  0.37710015  0.44715161     0.61300
H1656       H  0.45145335  0.35361045  0.47661557     0.08700
O1657       O  0.42554050  0.26245097  0.52758043    -0.40100
O1658       O  0.43158203  0.28783620  0.54914351    -0.39300
O1659       O  0.49158265  0.33553946  0.47402154    -0.39300
O1660       O  0.48500847  0.31008004  0.45274408    -0.37000
O1661       O  0.42695792  0.39079403  0.45830057    -0.37900
O1662       O  0.45046913  0.38193237  0.43566247    -0.34100
O1663       O  0.40081875  0.28741624  0.47060419    -0.35500
O1664       O  0.42741311  0.27871685  0.45158352    -0.39800
C1665       C  0.52280402  0.03488739  0.30013462    -0.13500
C1666       C  0.51512856  0.03590492  0.32034037     0.16900
C1667       C  0.49497085  0.02839130  0.32450693     0.03200
C1668       C  0.48307392  0.01957570  0.30848140    -0.12000
C1669       C  0.49108684  0.01801889  0.28831815    -0.03000
C1670       C  0.51108808  0.02615265  0.28419183     0.02400
C1671       C  0.52798048  0.04669932  0.33605142     0.09300
N1672       N  0.48677371  0.02892354  0.34502104     0.65600
H1673       H  0.46782626  0.01325028  0.31199211     0.18500
N1674       N  0.51943193  0.02644389  0.26370664     0.76100
H1675       H  0.53792509  0.04149536  0.29655501     0.10100
C1676       C  0.54861357  0.04037931  0.33983966     0.03800
C1677       C  0.56231637  0.05362148  0.35020791    -0.05000
C1678       C  0.55596969  0.07337457  0.35693612    -0.23300
C1679       C  0.53476272  0.07898910  0.35454281     0.13000
C1680       C  0.52104882  0.06564086  0.34413270    -0.12500
N1681       N  0.55613881  0.02094005  0.33227922     0.64700
H1682       H  0.57833742  0.04864627  0.35213325     0.12500
N1683       N  0.52709541  0.09857945  0.36150843     0.61300
H1684       H  0.50522577  0.07074868  0.34113581     0.08700
O1685       O  0.53557903  0.01611575  0.25955006    -0.40100
O1686       O  0.51251370  0.03926382  0.25071009    -0.39300
O1687       O  0.47145951  0.04043676  0.34916810    -0.39300
O1688       O  0.49299336  0.01593464  0.35819493    -0.37000
O1689       O  0.51819876  0.09988760  0.37883718    -0.37900
O1690       O  0.52572280  0.11342717  0.34894302    -0.34100
O1691       O  0.56925361  0.02052972  0.31778169    -0.35500
O1692       O  0.55246548  0.00462761  0.34231654    -0.39800
C1693       C  0.70011509  0.09323120  0.30646499    -0.13500
C1694       C  0.69859989  0.07169561  0.30385048     0.16900
C1695       C  0.68192308  0.06105440  0.31312863     0.03200
C1696       C  0.66715326  0.07198012  0.32466601    -0.12000
C1697       C  0.66874221  0.09351543  0.32787353    -0.03000
C1698       C  0.68539225  0.10421039  0.31829706     0.02400
C1699       C  0.71475613  0.06017530  0.29207947     0.09300
N1700       N  0.68050088  0.03893733  0.31212064     0.65600
H1701       H  0.65474712  0.06321432  0.33186439     0.18500
N1702       N  0.68781196  0.12609214  0.32058921     0.76100
H1703       H  0.71289959  0.10155256  0.29938068     0.10100
C1704       C  0.70963511  0.04890299  0.27407778     0.03800
C1705       C  0.72400954  0.03492521  0.26569594    -0.05000
C1706       C  0.74388495  0.03227790  0.27448591    -0.23300
C1707       C  0.74952887  0.04481969  0.29158210     0.13000
C1708       C  0.73490126  0.05845230  0.30030636    -0.12500
N1709       N  0.68998775  0.05170646  0.26400607     0.64700
H1710       H  0.71953737  0.02609028  0.25209354     0.12500
N1711       N  0.76956452  0.04310773  0.30101464     0.61300
H1712       H  0.73901987  0.06710512  0.31413464     0.08700
O1713       O  0.68000106  0.13805211  0.30727612    -0.40100
O1714       O  0.70076413  0.13313635  0.33351185    -0.39300
O1715       O  0.69408997  0.02802288  0.32104959    -0.39300
O1716       O  0.66394744  0.03050660  0.30576077    -0.37000
O1717       O  0.78358667  0.05601497  0.29654629    -0.37900
O1718       O  0.77206643  0.03119869  0.31624479    -0.34100
O1719       O  0.68621915  0.06858251  0.25494663    -0.35500
O1720       O  0.67833849  0.03629553  0.26071655    -0.39800
C1721       C  0.67359970  0.20744212  0.43567840    -0.13500
C1722       C  0.69133777  0.21379369  0.42487157     0.16900
C1723       C  0.69576567  0.20473023  0.40552571     0.03200
C1724       C  0.68250401  0.18942285  0.39740321    -0.12000
C1725       C  0.66486903  0.18275242  0.40838132    -0.03000
C1726       C  0.66039501  0.19212839  0.42769114     0.02400
C1727       C  0.70585021  0.22839036  0.43522256     0.09300
N1728       N  0.71357957  0.21100556  0.39393967     0.65600
H1729       H  0.68621528  0.18249857  0.38255307     0.18500
N1730       N  0.64231941  0.18657365  0.43926753     0.76100
H1731       H  0.67017015  0.21419458  0.45068381     0.10100
C1732       C  0.70008815  0.24903954  0.43930051     0.03800
C1733       C  0.71222063  0.26130577  0.45259103    -0.05000
C1734       C  0.73008147  0.25325154  0.46226978    -0.23300
C1735       C  0.73644730  0.23282059  0.45716130     0.13000
C1736       C  0.72430808  0.22067116  0.44376731    -0.12500
N1737       N  0.68153585  0.25750772  0.43055529     0.64700
H1738       H  0.70701816  0.27691037  0.45608801     0.12500
N1739       N  0.75494193  0.22396307  0.46570118     0.61300
H1740       H  0.72886643  0.20476530  0.44071881     0.08700
O1741       O  0.62561948  0.19652023  0.43664719    -0.40100
O1742       O  0.64411969  0.17476339  0.45467445    -0.39300
O1743       O  0.72823752  0.19835570  0.39088533    -0.39300
O1744       O  0.71303620  0.22771209  0.38388461    -0.37000
O1745       O  0.75351899  0.20963428  0.47884891    -0.37900
O1746       O  0.77228468  0.22760743  0.45734771    -0.34100
O1747       O  0.66524055  0.25871562  0.44134549    -0.35500
O1748       O  0.68233118  0.26663199  0.41335717    -0.39800
C1749       C  0.56317592  0.17857413  0.29247892    -0.13500
C1750       C  0.57427192  0.19616142  0.28632428     0.16900
C1751       C  0.59319423  0.20102210  0.29623828     0.03200
C1752       C  0.60046828  0.18855840  0.31241747    -0.12000
C1753       C  0.58888101  0.17146016  0.31928791    -0.03000
C1754       C  0.57023076  0.16626332  0.30882537     0.02400
C1755       C  0.56405085  0.21089298  0.27209737     0.09300
N1756       N  0.60483277  0.21891719  0.29041259     0.65600
H1757       H  0.61487909  0.19275181  0.32015389     0.18500
N1758       N  0.55821275  0.14860034  0.31463692     0.76100
H1759       H  0.54844832  0.17485607  0.28508346     0.10100
C1760       C  0.56069643  0.20626547  0.25106234     0.03800
C1761       C  0.54807039  0.21926323  0.23902995    -0.05000
C1762       C  0.53809303  0.23658703  0.24781922    -0.23300
C1763       C  0.54210116  0.24142992  0.26886762     0.13000
C1764       C  0.55512013  0.22871686  0.28060891    -0.12500
N1765       N  0.56939601  0.18804326  0.24194756     0.64700
H1766       H  0.54523590  0.21512547  0.22299082     0.12500
N1767       N  0.53257233  0.25876602  0.27887860     0.61300
H1768       H  0.55742454  0.23223563  0.29688978     0.08700
O1769       O  0.54179820  0.15109106  0.32502975    -0.40100
O1770       O  0.56167283  0.13134073  0.30609253    -0.39300
O1771       O  0.60341944  0.23529714  0.30102131    -0.39300
O1772       O  0.61904081  0.21726460  0.27707207    -0.37000
O1773       O  0.54272865  0.27536695  0.28098771    -0.37900
O1774       O  0.51635959  0.25600952  0.28951235    -0.34100
O1775       O  0.55846857  0.17186470  0.24043465    -0.35500
O1776       O  0.58630050  0.18924427  0.23213335    -0.39800
C1777       C  0.53252837  0.17183477  0.44859645    -0.13500
C1778       C  0.54301376  0.18235832  0.46451451     0.16900
C1779       C  0.56467654  0.18013324  0.46650529     0.03200
C1780       C  0.57564446  0.16788651  0.45238852    -0.12000
C1781       C  0.56538693  0.15778819  0.43599113    -0.03000
C1782       C  0.54348842  0.15945670  0.43443405     0.02400
C1783       C  0.53128916  0.19575630  0.47896063     0.09300
N1784       N  0.57584658  0.19107881  0.48222629     0.65600
H1785       H  0.59245560  0.16700077  0.45380719     0.18500
N1786       N  0.53213364  0.14810512  0.41910451     0.76100
H1787       H  0.51574069  0.17316823  0.44724940     0.10100
C1788       C  0.52413670  0.21530130  0.47279492     0.03800
C1789       C  0.51349244  0.22789913  0.48685369    -0.05000
C1790       C  0.50922930  0.22128569  0.50721854    -0.23300
C1791       C  0.51596635  0.20122408  0.51308915     0.13000
C1792       C  0.52729052  0.18893542  0.49907389    -0.12500
N1793       N  0.52788608  0.22268621  0.45233524     0.64700
H1794       H  0.50864029  0.24309270  0.48162946     0.12500
N1795       N  0.51011681  0.19231019  0.53238719     0.61300
H1796       H  0.53238427  0.17359673  0.50366176     0.08700
O1797       O  0.52374782  0.15755018  0.40420992    -0.40100
O1798       O  0.52760752  0.12936481  0.42229909    -0.39300
O1799       O  0.58250379  0.18149745  0.49786743    -0.39300
O1800       O  0.58161992  0.20947744  0.47906196    -0.37000
O1801       O  0.49111967  0.18863860  0.53566880    -0.37900
O1802       O  0.52369184  0.18313056  0.54311939    -0.34100
O1803       O  0.51360342  0.22179693  0.43894079    -0.35500
O1804       O  0.54444128  0.23240750  0.44841321    -0.39800
C1805       C  0.66639292  0.05912296  0.46058900    -0.13500
C1806       C  0.67494594  0.04218751  0.44990335     0.16900
C1807       C  0.66982715  0.03907939  0.42902711     0.03200
C1808       C  0.65663244  0.05300992  0.41900184    -0.12000
C1809       C  0.64847364  0.07048431  0.42930828    -0.03000
C1810       C  0.65312210  0.07319735  0.45054384     0.02400
C1811       C  0.68990406  0.02827612  0.46035317     0.09300
N1812       N  0.67896376  0.02250968  0.41748007     0.65600
H1813       H  0.65357477  0.05053456  0.40267487     0.18500
N1814       N  0.64426364  0.08984209  0.46219211     0.76100
H1815       H  0.67013796  0.06146263  0.47680257     0.10100
C1816       C  0.71037420  0.03482157  0.46408922     0.03800
C1817       C  0.72439492  0.02155325  0.47385397    -0.05000
C1818       C  0.71851860  0.00153285  0.48030538    -0.23300
C1819       C  0.69783896  0.99490472  0.47641019     0.13000
C1820       C  0.68386515  0.00826815  0.46623632    -0.12500
N1821       N  0.71728767  0.05478691  0.45753228     0.64700
H1822       H  0.74017696  0.02707073  0.47621379     0.12500
N1823       N  0.69040137  0.97527203  0.48346004     0.61300
H1824       H  0.66799360  0.00323091  0.46339449     0.08700
O1825       O  0.65555255  0.10485882  0.46776743    -0.40100
O1826       O  0.62636353  0.08777899  0.46991225    -0.39300
O1827       O  0.66784582  0.00749651  0.41157545    -0.39300
O1828       O  0.69730117  0.02428411  0.41076021    -0.37000
O1829       O  0.69013172  0.97147206  0.50258810    -0.37900
O1830       O  0.68017122  0.96380824  0.47128542    -0.34100
O1831       O  0.71981231  0.06906554  0.47067169    -0.35500
O1832       O  0.72375246  0.05721966  0.43929238    -0.39800
C1833       C  0.16770389  0.46431196  0.57227666    -0.13500
C1834       C  0.18669658  0.46071291  0.56218191     0.16900
C1835       C  0.19404447  0.44022340  0.56015737     0.03200
C1836       C  0.18279959  0.42388947  0.56870550    -0.12000
C1837       C  0.16410781  0.42742151  0.57930187    -0.03000
C1838       C  0.15643824  0.44788415  0.58098768     0.02400
C1839       C  0.19964401  0.47834629  0.55514576     0.09300
N1840       N  0.21301857  0.43579059  0.54950401     0.65600
H1841       H  0.18889567  0.40827198  0.56721860     0.18500
N1842       N  0.13837104  0.45243992  0.59305913     0.76100
H1843       H  0.16215258  0.48006079  0.57434692     0.10100
C1844       C  0.19234545  0.49272929  0.54046479     0.03800
C1845       C  0.20601208  0.50758538  0.53240706    -0.05000
C1846       C  0.22692304  0.50817130  0.53867966    -0.23300
C1847       C  0.23366820  0.49505092  0.55471763     0.13000
C1848       C  0.22000610  0.48029240  0.56278479    -0.12500
N1849       N  0.17170654  0.49126253  0.53231925     0.64700
H1850       H  0.20071159  0.51754808  0.51995642     0.12500
N1851       N  0.25433204  0.49658734  0.56289482     0.61300
H1852       H  0.22545557  0.46994144  0.57485067     0.08700
O1853       O  0.12227025  0.45954721  0.58442443    -0.40100
O1854       O  0.13952044  0.45222199  0.61254352    -0.39300
O1855       O  0.22844920  0.42875921  0.55933936    -0.39300
O1856       O  0.21342841  0.43619347  0.53000733    -0.37000
O1857       O  0.25998661  0.51307460  0.57182279    -0.37900
O1858       O  0.26545104  0.48055670  0.56451686    -0.34100
O1859       O  0.15857181  0.50524252  0.53629993    -0.35500
O1860       O  0.16725897  0.47721443  0.51943183    -0.39800
C1861       C  0.09341727  0.29646863  0.70407141    -0.13500
C1862       C  0.08007315  0.30828980  0.71651018     0.16900
C1863       C  0.08023230  0.32999367  0.71507062     0.03200
C1864       C  0.09289065  0.33953657  0.70041132    -0.12000
C1865       C  0.10527927  0.32768641  0.68694276    -0.03000
C1866       C  0.10611096  0.30601552  0.68936444     0.02400
C1867       C  0.06467442  0.29759943  0.72938524     0.09300
N1868       N  0.06678394  0.34240887  0.72759147     0.65600
H1869       H  0.09204364  0.35624400  0.69874090     0.18500
N1870       N  0.11986753  0.29361843  0.67717188     0.76100
H1871       H  0.09353090  0.27971352  0.70542217     0.10100
C1872       C  0.04533186  0.29199714  0.72100760     0.03800
C1873       C  0.03132020  0.28061799  0.73283219    -0.05000
C1874       C  0.03619499  0.27443015  0.75314377    -0.23300
C1875       C  0.05562042  0.28059781  0.76162981     0.13000
C1876       C  0.06960797  0.29213154  0.74967611    -0.12500
N1877       N  0.03987905  0.29753581  0.70032018     0.64700
H1878       H  0.01648076  0.27658781  0.72587532     0.12500
N1879       N  0.06203018  0.27446150  0.78180605     0.61300
H1880       H  0.08465545  0.29637307  0.75608516     0.08700
O1881       O  0.11256014  0.28143225  0.66369937    -0.40100
O1882       O  0.13881488  0.29233190  0.68218790    -0.39300
O1883       O  0.07410241  0.35177738  0.74313900    -0.39300
O1884       O  0.04892422  0.34714257  0.72097815    -0.37000
O1885       O  0.07033261  0.25689876  0.78399365    -0.37900
O1886       O  0.06526799  0.28826286  0.79530644    -0.34100
O1887       O  0.04364362  0.28514896  0.68566630    -0.35500
O1888       O  0.02868031  0.31325671  0.69710811    -0.39800
C1889       C  0.05061950  0.30243371  0.50699463    -0.13500
C1890       C  0.04193385  0.30983015  0.52546879     0.16900
C1891       C  0.02080121  0.30609381  0.52963126     0.03200
C1892       C  0.00888795  0.29441865  0.51570960    -0.12000
C1893       C  0.01770121  0.28613139  0.49759447    -0.03000
C1894       C  0.03871970  0.29063335  0.49304214     0.02400
C1895       C  0.05542639  0.32008778  0.54096326     0.09300
N1896       N  0.01155513  0.31312992  0.54846817     0.65600
H1897       H  0.99276852  0.29112825  0.51950834     0.18500
N1898       N  0.04869531  0.28188753  0.47533444     0.76100
H1899       H  0.06698080  0.30513646  0.50380099     0.10100
C1900       C  0.06704923  0.30823207  0.55502977     0.03800
C1901       C  0.07966259  0.31806143  0.56969394    -0.05000
C1902       C  0.08121522  0.33981071  0.57064401    -0.23300
C1903       C  0.06962710  0.35169428  0.55625092     0.13000
C1904       C  0.05675670  0.34173715  0.54170510    -0.12500
N1905       N  0.06622480  0.28611494  0.55452684     0.64700
H1906       H  0.08844945  0.30844447  0.58030876     0.12500
N1907       N  0.07071117  0.37379841  0.55610782     0.61300
H1908       H  0.04785575  0.35095032  0.53082005     0.08700
O1909       O  0.05799045  0.26474572  0.47693088    -0.40100
O1910       O  0.05186674  0.29303624  0.45967385    -0.39300
O1911       O  0.99900885  0.32816064  0.54816241    -0.39300
O1912       O  0.01313639  0.30226889  0.56457723    -0.37000
O1913       O  0.08354862  0.38271351  0.54438027    -0.37900
O1914       O  0.05658594  0.38426866  0.56474778    -0.34100
O1915       O  0.08047659  0.27609351  0.54557206    -0.35500
O1916       O  0.05345175  0.27667423  0.56590072    -0.39800
C1917       C  0.20369981  0.42273137  0.69996771    -0.13500
C1918       C  0.22210088  0.42767297  0.68950810     0.16900
C1919       C  0.22635822  0.41830493  0.67035638     0.03200
C1920       C  0.21163636  0.40506939  0.66137410    -0.12000
C1921       C  0.19246236  0.40110482  0.67113680    -0.03000
C1922       C  0.18894399  0.40946895  0.69106455     0.02400
C1923       C  0.23590229  0.44369135  0.69831010     0.09300
N1924       N  0.24489330  0.42321463  0.65923221     0.65600
H1925       H  0.21480384  0.39886159  0.64609580     0.18500
N1926       N  0.17048331  0.40479628  0.70241643     0.76100
H1927       H  0.20057190  0.42962619  0.71497250     0.10100
C1928       C  0.22967728  0.46455957  0.69821444     0.03800
C1929       C  0.24152047  0.47936409  0.70868446    -0.05000
C1930       C  0.25969254  0.47379116  0.71936629    -0.23300
C1931       C  0.26638832  0.45290950  0.71881099     0.13000
C1932       C  0.25446224  0.43805458  0.70820916    -0.12500
N1933       N  0.21121883  0.47085132  0.68760133     0.64700
H1934       H  0.23638167  0.49538604  0.70850714     0.12500
N1935       N  0.28429612  0.44628011  0.73014390     0.61300
H1936       H  0.25921683  0.42191247  0.70845622     0.08700
O1937       O  0.15644044  0.41833784  0.70427942    -0.40100
O1938       O  0.16992593  0.38878922  0.71354298    -0.39300
O1939       O  0.25917268  0.40989130  0.65763036    -0.39300
O1940       O  0.24553544  0.43936681  0.64832067    -0.37000
O1941       O  0.28279947  0.44286050  0.74928267    -0.37900
O1942       O  0.30034192  0.44040166  0.72055791    -0.34100
O1943       O  0.19483357  0.47453445  0.69768478    -0.35500
O1944       O  0.21210298  0.47550009  0.66869154    -0.39800
C1945       C  0.21413645  0.27603640  0.53521571    -0.13500
C1946       C  0.21488023  0.26905659  0.55566347     0.16900
C1947       C  0.22370279  0.24954614  0.55993236     0.03200
C1948       C  0.23173121  0.23744478  0.54370773    -0.12000
C1949       C  0.23142872  0.24469732  0.52323475    -0.03000
C1950       C  0.22229682  0.26418348  0.51907469     0.02400
C1951       C  0.20507616  0.28208955  0.57182619     0.09300
N1952       N  0.22556763  0.24237335  0.58072067     0.65600
H1953       H  0.23897327  0.22266661  0.54725766     0.18500
N1954       N  0.22045526  0.27185355  0.49843892     0.76100
H1955       H  0.20676917  0.29076561  0.53168229     0.10100
C1956       C  0.21213075  0.30240991  0.57545517     0.03800
C1957       C  0.20012741  0.31607880  0.58721884    -0.05000
C1958       C  0.18076422  0.31009189  0.59541027    -0.23300
C1959       C  0.17425920  0.28925425  0.59268867     0.13000
C1960       C  0.18650536  0.27549628  0.58104657    -0.12500
N1961       N  0.23112238  0.30963565  0.56655508     0.64700
H1962       H  0.20578419  0.33178356  0.58924629     0.12500
N1963       N  0.15479426  0.28205371  0.60053918     0.61300
H1964       H  0.18081430  0.25993092  0.57811431     0.08700
O1965       O  0.23070134  0.28762589  0.49310443    -0.40100
O1966       O  0.20594626  0.26533604  0.48695920    -0.39300
O1967       O  0.21488061  0.22712049  0.58664808    -0.39300
O1968       O  0.24023457  0.24897470  0.59195619    -0.37000
O1969       O  0.15446369  0.27123514  0.61674541    -0.37900
O1970       O  0.13876060  0.28296687  0.58927156    -0.34100
O1971       O  0.23053481  0.32169796  0.55125280    -0.35500
O1972       O  0.24801017  0.30716977  0.57622396    -0.39800
C1973       C  0.04829144  0.44582811  0.65109472    -0.13500
C1974       C  0.04401618  0.44267564  0.67209541     0.16900
C1975       C  0.05525273  0.42763144  0.68310104     0.03200
C1976       C  0.07101518  0.41648330  0.67329299    -0.12000
C1977       C  0.07568651  0.41964596  0.65230714    -0.03000
C1978       C  0.06375936  0.43419105  0.64101106     0.02400
C1979       C  0.02831588  0.45547293  0.68283741     0.09300
N1980       N  0.05082355  0.42355901  0.70434374     0.65600
H1981       H  0.07953575  0.40508161  0.68222482     0.18500
N1982       N  0.06721182  0.43747007  0.61945548     0.76100
H1983       H  0.03953749  0.45731498  0.64250531     0.10100
C1984       C  0.03385331  0.47469007  0.69145497     0.03800
C1985       C  0.01996078  0.48499307  0.70451187    -0.05000
C1986       C  0.00037439  0.47648262  0.70931944    -0.23300
C1987       C  0.99436076  0.45774465  0.69957141     0.13000
C1988       C  0.00841309  0.44742662  0.68648198    -0.12500
N1989       N  0.05395399  0.48342477  0.68785424     0.64700
H1990       H  0.02484504  0.49955927  0.71140992     0.12500
N1991       N  0.97471712  0.44826556  0.70368708     0.61300
H1992       H  0.00413697  0.43253093  0.67989398     0.08700
O1993       O  0.07724752  0.45318935  0.61361516    -0.40100
O1994       O  0.05692167  0.42710465  0.60638735    -0.39300
O1995       O  0.03919879  0.40853442  0.70899985    -0.39300
O1996       O  0.06134301  0.43242871  0.71828773    -0.37000
O1997       O  0.96251445  0.44445024  0.68884129    -0.37900
O1998       O  0.97173367  0.43958574  0.72087960    -0.34100
O1999       O  0.05614731  0.49718793  0.67422930    -0.35500
O2000       O  0.06865704  0.47975924  0.70027706    -0.39800
C2001       C  0.64685961  0.50951974  0.26470892    -0.13500
C2002       C  0.63648574  0.49359149  0.25416459     0.16900
C2003       C  0.64826186  0.47810483  0.24418879     0.03200
C2004       C  0.67010138  0.47886568  0.24492660    -0.12000
C2005       C  0.68065973  0.49510393  0.25514110    -0.03000
C2006       C  0.66861444  0.51046536  0.26531615     0.02400
C2007       C  0.61338078  0.49400280  0.25359384     0.09300
N2008       N  0.63834073  0.46221442  0.23227338     0.65600
H2009       H  0.67879631  0.46698066  0.23679381     0.18500
N2010       N  0.67806934  0.52716163  0.27644432     0.76100
H2011       H  0.63791998  0.52144708  0.27254219     0.10100
C2012       C  0.60122369  0.47931304  0.26420150     0.03800
C2013       C  0.57956761  0.48182560  0.26530248    -0.05000
C2014       C  0.56957845  0.49887684  0.25610577    -0.23300
C2015       C  0.58180660  0.51311585  0.24476929     0.13000
C2016       C  0.60343685  0.51056351  0.24369556    -0.12500
N2017       N  0.61069641  0.46244092  0.27493884     0.64700
H2018       H  0.57057332  0.47052575  0.27386040     0.12500
N2019       N  0.57276161  0.53087269  0.23516187     0.61300
H2020       H  0.61266266  0.52198712  0.23552693     0.08700
O2021       O  0.68157125  0.52531489  0.29555319    -0.40100
O2022       O  0.67949808  0.54475287  0.26811760    -0.39300
O2023       O  0.63015789  0.46671315  0.21511195    -0.39300
O2024       O  0.64132577  0.44344251  0.23678437    -0.37000
O2025       O  0.57126011  0.54759637  0.24520837    -0.37900
O2026       O  0.56990501  0.53093485  0.21585231    -0.34100
O2027       O  0.61897900  0.46561748  0.29237041    -0.35500
O2028       O  0.60686781  0.44410011  0.26928215    -0.39800
C2029       C  0.75608144  0.39725104  0.48085917    -0.13500
C2030       C  0.73918463  0.38754783  0.49041843     0.16900
C2031       C  0.72291087  0.39985461  0.49823235     0.03200
C2032       C  0.72403658  0.42153082  0.49677513    -0.12000
C2033       C  0.74135432  0.43154876  0.48783505    -0.03000
C2034       C  0.75740428  0.41891745  0.47950779     0.02400
C2035       C  0.73958337  0.36465291  0.49289821     0.09300
N2036       N  0.70562192  0.39064606  0.50859626     0.65600
H2037       H  0.71135614  0.43054332  0.50320785     0.18500
N2038       N  0.77546005  0.42756589  0.47003112     0.76100
H2039       H  0.76868193  0.38786464  0.47476689     0.10100
C2040       C  0.72681053  0.35143938  0.48105242     0.03800
C2041       C  0.72917553  0.32988192  0.48256122    -0.05000
C2042       C  0.74424627  0.32090937  0.49567384    -0.23300
C2043       C  0.75649202  0.33434674  0.50814706     0.13000
C2044       C  0.75400875  0.35590926  0.50659501    -0.12500
N2045       N  0.71196167  0.35964433  0.46677783     0.64700
H2046       H  0.71930998  0.32013521  0.47300106     0.12500
N2047       N  0.77201750  0.32662626  0.52198368     0.61300
H2048       H  0.76387740  0.36599690  0.51581263     0.08700
O2049       O  0.77925418  0.42327932  0.45136144    -0.40100
O2050       O  0.78989513  0.43456061  0.48133084    -0.39300
O2051       O  0.70768443  0.38469223  0.52704875    -0.39300
O2052       O  0.68762070  0.39216322  0.50090976    -0.37000
O2053       O  0.78877071  0.31942456  0.51477243    -0.37900
O2054       O  0.77107193  0.33132557  0.54091684    -0.34100
O2055       O  0.71797717  0.36572986  0.44926206    -0.35500
O2056       O  0.69278920  0.35684493  0.46991491    -0.39800
C2057       C  0.85568132  0.48686115  0.76197087    -0.13500
C2058       C  0.86558238  0.49899447  0.74703824     0.16900
C2059       C  0.85341169  0.51095394  0.73344378     0.03200
C2060       C  0.83168427  0.51055886  0.73496278    -0.12000
C2061       C  0.82157839  0.49838505  0.74991417    -0.03000
C2062       C  0.83396837  0.48648908  0.76363434     0.02400
C2063       C  0.88857842  0.49841302  0.74544175     0.09300
N2064       N  0.86294143  0.52383783  0.71823880     0.65600
H2065       H  0.82269606  0.51978764  0.72414584     0.18500
N2066       N  0.82490718  0.47407188  0.77948891     0.76100
H2067       H  0.86493417  0.47742313  0.77240821     0.10100
C2068       C  0.90131577  0.50442083  0.76213037     0.03800
C2069       C  0.92292375  0.50323467  0.76028490    -0.05000
C2070       C  0.93253135  0.49625273  0.74197536    -0.23300
C2071       C  0.91960119  0.48975139  0.72539081     0.13000
C2072       C  0.89788421  0.49085087  0.72735603    -0.12500
N2073       N  0.89252195  0.51222611  0.78088828     0.64700
H2074       H  0.93226887  0.50802505  0.77354150     0.12500
N2075       N  0.92805442  0.48214662  0.70642395     0.61300
H2076       H  0.88812540  0.48570564  0.71454582     0.08700
O2077       O  0.82051537  0.48219856  0.79670870    -0.40100
O2078       O  0.82508931  0.45459626  0.77774070    -0.39300
O2079       O  0.86315283  0.51812691  0.69956093    -0.39300
O2080       O  0.86777995  0.54223618  0.72281669    -0.37000
O2081       O  0.93502204  0.49481429  0.69333472    -0.37900
O2082       O  0.92405206  0.46382438  0.70083128    -0.34100
O2083       O  0.89264494  0.50108622  0.79688337    -0.35500
O2084       O  0.88853556  0.53130051  0.78251393    -0.39800
C2085       C  0.40131407  0.48642386  0.76353342    -0.13500
C2086       C  0.39176490  0.50099490  0.75056405     0.16900
C2087       C  0.40434420  0.51486305  0.73941514     0.03200
C2088       C  0.42599719  0.51363197  0.74101026    -0.12000
C2089       C  0.43578151  0.49879022  0.75362230    -0.03000
C2090       C  0.42306622  0.48525270  0.76526276     0.02400
C2091       C  0.36870608  0.50188630  0.74915102     0.09300
N2092       N  0.39535136  0.52992633  0.72594273     0.65600
H2093       H  0.43524207  0.52452466  0.73209410     0.18500
N2094       N  0.43184887  0.47008757  0.77870402     0.76100
H2095       H  0.39174941  0.47591263  0.77256436     0.10100
C2096       C  0.35702225  0.48464105  0.74250396     0.03800
C2097       C  0.33531221  0.48592605  0.74140779    -0.05000
C2098       C  0.32468327  0.50425401  0.74671459    -0.23300
C2099       C  0.33650187  0.52152581  0.75351846     0.13000
C2100       C  0.35824493  0.52012284  0.75474866    -0.12500
N2101       N  0.36705036  0.46591280  0.73616502     0.64700
H2102       H  0.32675749  0.47237648  0.73617459     0.12500
N2103       N  0.32684062  0.54077589  0.75873338     0.61300
H2104       H  0.36706524  0.53345493  0.76013310     0.08700
O2105       O  0.43256498  0.45141853  0.77290299    -0.40100
O2106       O  0.43423941  0.47439902  0.79760711    -0.39300
O2107       O  0.39548834  0.54879565  0.73111175    -0.39300
O2108       O  0.39095662  0.52497295  0.70755676    -0.37000
O2109       O  0.32355885  0.54521158  0.77746269    -0.37900
O2110       O  0.32512976  0.55468687  0.74517835    -0.34100
O2111       O  0.36580685  0.45000291  0.74737347    -0.35500
O2112       O  0.37389040  0.46427397  0.71795898    -0.39800
C2113       C  0.76493480  0.85685711  0.49191940    -0.13500
C2114       C  0.75141093  0.86672470  0.50569686     0.16900
C2115       C  0.73775259  0.85466487  0.51754612     0.03200
C2116       C  0.73753962  0.83305442  0.51520272    -0.12000
C2117       C  0.75070168  0.82286823  0.50094468    -0.03000
C2118       C  0.76481039  0.83521624  0.48942254     0.02400
C2119       C  0.75029557  0.88967822  0.50580432     0.09300
N2120       N  0.72355960  0.86424781  0.53159874     0.65600
H2121       H  0.72647706  0.82430926  0.52431589     0.18500
N2122       N  0.77903374  0.82634902  0.47495761     0.76100
H2123       H  0.77548249  0.86613563  0.48269682     0.10100
C2124       C  0.76431919  0.90187384  0.51726665     0.03800
C2125       C  0.76370090  0.92353632  0.51562486    -0.05000
C2126       C  0.74941216  0.93359493  0.50241088    -0.23300
C2127       C  0.73539915  0.92107559  0.49081266     0.13000
C2128       C  0.73585755  0.89942820  0.49288077    -0.12500
N2129       N  0.77933048  0.89245166  0.53057377     0.64700
H2130       H  0.77461755  0.93249338  0.52483216     0.12500
N2131       N  0.72126175  0.92976432  0.47610932     0.61300
H2132       H  0.72530377  0.89002666  0.48366229     0.08700
O2133       O  0.79445008  0.81621381  0.48157900    -0.40100
O2134       O  0.77929585  0.83312220  0.45667308    -0.39300
O2135       O  0.70481101  0.86681733  0.52636342    -0.39300
O2136       O  0.72898966  0.86743782  0.55009574    -0.37000
O2137       O  0.72832125  0.93749474  0.45965403    -0.37900
O2138       O  0.70219276  0.92518942  0.47710302    -0.34100
O2139       O  0.79791787  0.89053690  0.52460438    -0.35500
O2140       O  0.77491059  0.88936619  0.54931026    -0.39800
C2141       C  0.50017949  0.75688792  0.39541487    -0.13500
C2142       C  0.50499673  0.73797486  0.38588261     0.16900
C2143       C  0.50799840  0.72028542  0.39816634     0.03200
C2144       C  0.50597755  0.72171039  0.41966629    -0.12000
C2145       C  0.50119987  0.74064759  0.42944855    -0.03000
C2146       C  0.49829828  0.75842429  0.41697151     0.02400
C2147       C  0.50728110  0.73714634  0.36312484     0.09300
N2148       N  0.51386248  0.70092870  0.38909879     0.65600
H2149       H  0.50835566  0.70781551  0.42873357     0.18500
N2150       N  0.49416541  0.77829313  0.42585600     0.76100
H2151       H  0.49804039  0.77062034  0.38603286     0.10100
C2152       C  0.49171348  0.72856298  0.35042086     0.03800
C2153       C  0.49421582  0.72848616  0.32892693    -0.05000
C2154       C  0.51214231  0.73678674  0.31952167    -0.23300
C2155       C  0.52797310  0.74498589  0.33251457     0.13000
C2156       C  0.52523904  0.74529569  0.35404174    -0.12500
N2157       N  0.47294605  0.72051388  0.35908531     0.64700
H2158       H  0.48168896  0.72217468  0.31956272     0.12500
N2159       N  0.54716744  0.75251303  0.32433486     0.61300
H2160       H  0.53742726  0.75168112  0.36382234     0.08700
O2161       O  0.47578513  0.78517902  0.42603153    -0.40100
O2162       O  0.50910580  0.79037248  0.42980714    -0.39300
O2163       O  0.53272411  0.69767260  0.38476732    -0.39300
O2164       O  0.50134857  0.68587476  0.38957860    -0.37000
O2165       O  0.55226178  0.77115385  0.32738517    -0.37900
O2166       O  0.56080201  0.73973610  0.31842818    -0.34100
O2167       O  0.45788529  0.73259015  0.36248396    -0.35500
O2168       O  0.46991142  0.70120304  0.35918508    -0.39800
C2169       C  0.49204990  0.76645840  0.85290377    -0.13500
C2170       C  0.50162440  0.74955888  0.86267506     0.16900
C2171       C  0.50940744  0.73324062  0.85027696     0.03200
C2172       C  0.50836385  0.73454556  0.82865721    -0.12000
C2173       C  0.49906228  0.75158208  0.81884996    -0.03000
C2174       C  0.49053517  0.76753973  0.83128946     0.02400
C2175       C  0.50248642  0.74884214  0.88574639     0.09300
N2176       N  0.51838971  0.71518208  0.85937462     0.65600
H2177       H  0.51458766  0.72188359  0.81947490     0.18500
N2178       N  0.48052519  0.78510785  0.82228110     0.76100
H2179       H  0.48536826  0.77882968  0.86216254     0.10100
C2180       C  0.51104411  0.76521285  0.89754001     0.03800
C2181       C  0.51073025  0.76441470  0.91923818    -0.05000
C2182       C  0.50225999  0.74735322  0.92981413    -0.23300
C2183       C  0.49386213  0.73085974  0.91780255     0.13000
C2184       C  0.49382992  0.73194427  0.89616002    -0.12500
N2185       N  0.52066058  0.78251451  0.88768211     0.64700
H2186       H  0.51741378  0.77727939  0.92782346     0.12500
N2187       N  0.48576269  0.71253663  0.92709685     0.61300
H2188       H  0.48673345  0.71941396  0.88739751     0.08700
O2189       O  0.49074583  0.80153736  0.81943833    -0.40100
O2190       O  0.46093721  0.78547400  0.82081771    -0.39300
O2191       O  0.50845620  0.69831466  0.85894485    -0.39300
O2192       O  0.53746848  0.71509321  0.86401085    -0.37000
O2193       O  0.46662557  0.71157800  0.93135053    -0.37900
O2194       O  0.49622969  0.69602600  0.92606021    -0.34100
O2195       O  0.51253155  0.80025431  0.88913965    -0.35500
O2196       O  0.53872010  0.78066508  0.88027327    -0.39800
C2197       C  0.76665688  0.10361432  0.99681238    -0.13500
C2198       C  0.75321137  0.11248200  0.01135647     0.16900
C2199       C  0.74164054  0.09946533  0.02442444     0.03200
C2200       C  0.74386556  0.07792507  0.02285491    -0.12000
C2201       C  0.75710875  0.06878069  0.00803628    -0.03000
C2202       C  0.76859065  0.08205036  0.99483575     0.02400
C2203       C  0.75107910  0.13534588  0.01211286     0.09300
N2204       N  0.72677315  0.10782434  0.03861535     0.65600
H2205       H  0.73473131  0.06832096  0.03313370     0.18500
N2206       N  0.78167406  0.07413037  0.97880129     0.76100
H2207       H  0.77542758  0.11358349  0.98654585     0.10100
C2208       C  0.75794293  0.14700950  0.02922368     0.03800
C2209       C  0.75567746  0.16859974  0.02920852    -0.05000
C2210       C  0.74704132  0.17918499  0.01215191    -0.23300
C2211       C  0.74033356  0.16724321  0.99493767     0.13000
C2212       C  0.74240938  0.14561701  0.99513919    -0.12500
N2213       N  0.76828910  0.13728242  0.04622206     0.64700
H2214       H  0.76128539  0.17710915  0.04258411     0.12500
N2215       N  0.73176749  0.17660857  0.97688167     0.61300
H2216       H  0.73717936  0.13671182  0.98184614     0.08700
O2217       O  0.80056672  0.07944870  0.97829169    -0.40100
O2218       O  0.77347171  0.06624374  0.96286643    -0.39300
O2219       O  0.70968677  0.11469624  0.03185043    -0.39300
O2220       O  0.72886699  0.10459226  0.05773876    -0.37000
O2221       O  0.74166403  0.17532874  0.96009191    -0.37900
O2222       O  0.71263674  0.18102770  0.97648348    -0.34100
O2223       O  0.78633031  0.12996354  0.04373611    -0.35500
O2224       O  0.76117797  0.13936512  0.06428400    -0.39800
C2225       C  0.15238426  0.01759264  0.75608733    -0.13500
C2226       C  0.14162630  0.00216021  0.74515405     0.16900
C2227       C  0.15309567  0.98711193  0.73421765     0.03200
C2228       C  0.17491609  0.98741103  0.73481062    -0.12000
C2229       C  0.18588966  0.00263075  0.74609011    -0.03000
C2230       C  0.17420335  0.01810039  0.75656191     0.02400
C2231       C  0.11846281  0.00241953  0.74487181     0.09300
N2232       N  0.14278292  0.97107951  0.72286233     0.65600
H2233       H  0.18325581  0.97540458  0.72648411     0.18500
N2234       N  0.18407736  0.03469669  0.76747827     0.76100
H2235       H  0.14373114  0.02959825  0.76411909     0.10100
C2236       C  0.10691046  0.00066364  0.76326184     0.03800
C2237       C  0.08514273  0.00152668  0.76264639    -0.05000
C2238       C  0.07428173  0.00418676  0.74391292    -0.23300
C2239       C  0.08593987  0.00604285  0.72543769     0.13000
C2240       C  0.10780207  0.00523226  0.72613572    -0.12500
N2241       N  0.11708805  0.99765095  0.78268861     0.64700
H2242       H  0.07669640  0.00020849  0.77709128     0.12500
N2243       N  0.07595366  0.00807017  0.70577743     0.61300
H2244       H  0.11655069  0.00675836  0.71188531     0.08700
O2245       O  0.18528553  0.03414356  0.78694381    -0.40100
O2246       O  0.18809712  0.05134749  0.75813287    -0.39300
O2247       O  0.14322559  0.97118545  0.70335783    -0.39300
O2248       O  0.13628089  0.95522261  0.73219275    -0.37000
O2249       O  0.07995307  0.02354656  0.69460282    -0.37900
O2250       O  0.06678624  0.99264201  0.69791447    -0.34100
O2251       O  0.11796115  0.01235623  0.79556931    -0.35500
O2252       O  0.12195000  0.97958563  0.78830171    -0.39800
C2253       C  0.01134554  0.76966574  0.10316628    -0.13500
C2254       C  0.01326424  0.74980187  0.11166374     0.16900
C2255       C  0.01528794  0.73267463  0.09829666     0.03200
C2256       C  0.01628600  0.73573288  0.07691442    -0.12000
C2257       C  0.01521466  0.75570734  0.06828540    -0.03000
C2258       C  0.01235475  0.77280553  0.08172535     0.02400
C2259       C  0.01312287  0.74726606  0.13447941     0.09300
N2260       N  0.01699674  0.71211996  0.10624605     0.65600
H2261       H  0.01810190  0.72226044  0.06699115     0.18500
N2262       N  0.01164327  0.79353125  0.07412882     0.76100
H2263       H  0.00947312  0.78294588  0.11334062     0.10100
C2264       C  0.02811223  0.75706049  0.14705102     0.03800
C2265       C  0.02713864  0.75510146  0.16856711    -0.05000
C2266       C  0.01143645  0.74334599  0.17818940    -0.23300
C2267       C  0.99647768  0.73336821  0.16538882     0.13000
C2268       C  0.99749080  0.73545728  0.14382784    -0.12500
N2269       N  0.04480029  0.76859823  0.13812806     0.64700
H2270       H  0.03896546  0.76286634  0.17773901     0.12500
N2271       N  0.98014455  0.72101327  0.17381172     0.61300
H2272       H  0.98571535  0.72802686  0.13429793     0.08700
O2273       O  0.02812363  0.80173924  0.06745247    -0.40100
O2274       O  0.99634699  0.80492489  0.07868353    -0.39300
O2275       O  0.00168561  0.69994244  0.10489706    -0.39300
O2276       O  0.03462477  0.70511752  0.11125963    -0.37000
O2277       O  0.96326462  0.72955065  0.17900292    -0.37900
O2278       O  0.98070446  0.70161235  0.17143392    -0.34100
O2279       O  0.04498710  0.78809047  0.13965462    -0.35500
O2280       O  0.06088566  0.75924078  0.13195847    -0.39800
C2281       C  0.26778272  0.64889485  0.50436189    -0.13500
C2282       C  0.25167159  0.63805908  0.49444981     0.16900
C2283       C  0.23580874  0.64940890  0.48450786     0.03200
C2284       C  0.23625938  0.67117182  0.48472505    -0.12000
C2285       C  0.25226168  0.68211086  0.49488778    -0.03000
C2286       C  0.26827920  0.67061663  0.50463239     0.02400
C2287       C  0.25106966  0.61502179  0.49592992     0.09300
N2288       N  0.21925152  0.63903051  0.47394505     0.65600
H2289       H  0.22377522  0.67954386  0.47712217     0.18500
N2290       N  0.28542742  0.68068243  0.51454644     0.76100
H2291       H  0.27998941  0.64039096  0.51226754     0.10100
C2292       C  0.26736990  0.60261778  0.48822110     0.03800
C2293       C  0.26740342  0.58118618  0.49173328    -0.05000
C2294       C  0.25156332  0.57152787  0.50323847    -0.23300
C2295       C  0.23506296  0.58409379  0.51080093     0.13000
C2296       C  0.23493197  0.60549683  0.50692566    -0.12500
N2297       N  0.28410726  0.61160812  0.47684688     0.64700
H2298       H  0.28026552  0.57214851  0.48567653     0.12500
N2299       N  0.21856526  0.57564127  0.52292516     0.61300
H2300       H  0.22247648  0.61490665  0.51328700     0.08700
O2301       O  0.30156077  0.68478904  0.50425234    -0.40100
O2302       O  0.28599780  0.68185268  0.53401986    -0.39300
O2303       O  0.20125048  0.63891700  0.48170861    -0.39300
O2304       O  0.22171976  0.63335385  0.45542402    -0.37000
O2305       O  0.22042625  0.57499410  0.54234333    -0.37900
O2306       O  0.20088222  0.57291965  0.51483635    -0.34100
O2307       O  0.30163492  0.61390059  0.48539190    -0.35500
O2308       O  0.28253910  0.61348208  0.45749593    -0.39800
C2309       C  0.24942039  0.14415239  0.50866635    -0.13500
C2310       C  0.25486484  0.13378793  0.49037019     0.16900
C2311       C  0.25850970  0.14547654  0.47237546     0.03200
C2312       C  0.25725288  0.16712900  0.47310404    -0.12000
C2313       C  0.25219576  0.17767333  0.49151591    -0.03000
C2314       C  0.24801364  0.16580869  0.50943053     0.02400
C2315       C  0.25587042  0.11077542  0.49023285     0.09300
N2316       N  0.26396193  0.13561087  0.45332561     0.65600
H2317       H  0.26033379  0.17571218  0.45905620     0.18500
N2318       N  0.24263651  0.17537942  0.52864268     0.76100
H2319       H  0.24604238  0.13532319  0.52249962     0.10100
C2320       C  0.26891467  0.09991519  0.50398792     0.03800
C2321       C  0.26856463  0.07823528  0.50437532    -0.05000
C2322       C  0.25545632  0.06681242  0.49112285    -0.23300
C2323       C  0.24264936  0.07781962  0.47702312     0.13000
C2324       C  0.24286075  0.09952476  0.47688743    -0.12500
N2325       N  0.28290937  0.11070445  0.51742972     0.64700
H2326       H  0.27865669  0.07035870  0.51527000     0.12500
N2327       N  0.22943065  0.06734466  0.46258438     0.61300
H2328       H  0.23253889  0.10766886  0.46640046     0.08700
O2329       O  0.22371696  0.17739856  0.53345222    -0.40100
O2330       O  0.25648697  0.17812766  0.54223758    -0.39300
O2331       O  0.25070937  0.13448214  0.43893581    -0.39300
O2332       O  0.28281064  0.13168526  0.44953440    -0.37000
O2333       O  0.21016427  0.06604681  0.46610419    -0.37900
O2334       O  0.23630177  0.06270052  0.44490099    -0.34100
O2335       O  0.27926872  0.11138752  0.53658534    -0.35500
O2336       O  0.30058257  0.11601030  0.51083119    -0.39800
C2337       C  0.02443272  0.74350658  0.60482726    -0.13500
C2338       C  0.00676727  0.73682534  0.61564681     0.16900
C2339       C  0.98935440  0.72971425  0.60433841     0.03200
C2340       C  0.98992995  0.72924309  0.58266941    -0.12000
C2341       C  0.00748495  0.73617888  0.57178283    -0.03000
C2342       C  0.02490887  0.74334197  0.58312414     0.02400
C2343       C  0.00618396  0.73882344  0.63858891     0.09300
N2344       N  0.97093279  0.72297416  0.61466534     0.65600
H2345       H  0.97632150  0.72380227  0.57428943     0.18500
N2346       N  0.04335707  0.75011568  0.57287476     0.76100
H2347       H  0.03783573  0.74929730  0.61329925     0.10100
C2348       C  0.02023602  0.72814428  0.65145592     0.03800
C2349       C  0.01953259  0.73097947  0.67297856    -0.05000
C2350       C  0.00510822  0.74456412  0.68230497    -0.23300
C2351       C  0.99125049  0.75552415  0.66912324     0.13000
C2352       C  0.99193650  0.75248854  0.64764365    -0.12500
N2353       N  0.03512554  0.71410966  0.64290070     0.64700
H2354       H  0.03047689  0.72235394  0.68241361     0.12500
N2355       N  0.97672965  0.77029809  0.67698520     0.61300
H2356       H  0.98136957  0.76121917  0.63785376     0.08700
O2357       O  0.05772145  0.73730173  0.56919792    -0.40100
O2358       O  0.04682523  0.76924867  0.57092384    -0.39300
O2359       O  0.95503249  0.73445169  0.61476410    -0.39300
O2360       O  0.96931318  0.70431683  0.62017586    -0.37000
O2361       O  0.97953779  0.78924782  0.67316209    -0.37900
O2362       O  0.95897718  0.76424168  0.68269011    -0.34100
O2363       O  0.05390214  0.71960426  0.64132846    -0.35500
O2364       O  0.03036605  0.69528511  0.64055038    -0.39800
C2365       C  0.16808302  0.94524523  0.45735793    -0.13500
C2366       C  0.17320446  0.96376578  0.44735535     0.16900
C2367       C  0.16412460  0.96818697  0.42801977     0.03200
C2368       C  0.15097508  0.95360374  0.41864817    -0.12000
C2369       C  0.14716059  0.93422499  0.42784663    -0.03000
C2370       C  0.15528694  0.93047432  0.44785429     0.02400
C2371       C  0.18999114  0.97673950  0.45627718     0.09300
N2372       N  0.16969568  0.98637046  0.41674323     0.65600
H2373       H  0.14501567  0.95694845  0.40332320     0.18500
N2374       N  0.15158002  0.91142699  0.45841221     0.76100
H2375       H  0.17489561  0.94180166  0.47231730     0.10100
C2376       C  0.18669865  0.99726325  0.46300257     0.03800
C2377       C  0.20328963  0.00855195  0.47154430    -0.05000
C2378       C  0.22312089  0.99960639  0.47388306    -0.23300
C2379       C  0.22639836  0.97917425  0.46672183     0.13000
C2380       C  0.20986339  0.96799038  0.45812935    -0.12500
N2381       N  0.16642089  0.00637430  0.46244784     0.64700
H2382       H  0.20038771  0.02413006  0.47721085     0.12500
N2383       N  0.24657088  0.96983735  0.46722892     0.61300
H2384       H  0.21261669  0.95232933  0.45258867     0.08700
O2385       O  0.13671628  0.91024179  0.47107157    -0.40100
O2386       O  0.16543623  0.89756856  0.45838024    -0.39300
O2387       O  0.18716612  0.98716109  0.40789873    -0.39300
O2388       O  0.15575083  0.99920164  0.41177485    -0.37000
O2389       O  0.26024647  0.97564214  0.45452796    -0.37900
O2390       O  0.24931932  0.95331191  0.47723276    -0.34100
O2391       O  0.15288792  0.00065260  0.47533627    -0.35500
O2392       O  0.16343466  0.02270336  0.45218866    -0.39800
C2393       C  0.06189537  0.83069198  0.46921225    -0.13500
C2394       C  0.05537524  0.81085875  0.46301130     0.16900
C2395       C  0.05767796  0.80498003  0.44209503     0.03200
C2396       C  0.06615160  0.81887343  0.42786080    -0.12000
C2397       C  0.07301683  0.83857388  0.43405629    -0.03000
C2398       C  0.07075357  0.84450395  0.45499427     0.02400
C2399       C  0.04472201  0.79697834  0.47796115     0.09300
N2400       N  0.05241843  0.78454101  0.43529292     0.65600
H2401       H  0.06827170  0.81379867  0.41198098     0.18500
N2402       N  0.07657202  0.86476097  0.46186187     0.76100
H2403       H  0.05967639  0.83566832  0.48510353     0.10100
C2404       C  0.05401350  0.79090961  0.49681028     0.03800
C2405       C  0.04357380  0.77711651  0.50997382    -0.05000
C2406       C  0.02397840  0.76910593  0.50459071    -0.23300
C2407       C  0.01424710  0.77614154  0.48629110     0.13000
C2408       C  0.02465416  0.78986598  0.47323353    -0.12500
N2409       N  0.07447808  0.79769473  0.50222721     0.80700
H2410       H  0.05128615  0.77185981  0.52395385     0.12500
N2411       N  0.99351781  0.76995178  0.48105324     0.61300
H2412       H  0.01691697  0.79511244  0.45925853     0.08700
O2413       O  0.09196770  0.86698196  0.47381075    -0.40100
O2414       O  0.06431173  0.87975505  0.45899253    -0.39300
O2415       O  0.03739288  0.78189975  0.42296699    -0.39300
O2416       O  0.06486239  0.76980726  0.43867152    -0.37000
O2417       O  0.97828663  0.77851291  0.48992709    -0.37900
O2418       O  0.99037271  0.75862304  0.46541327    -0.34100
O2419       O  0.07692385  0.81036394  0.51693537    -0.35500
O2420       O  0.09008539  0.78845245  0.49480250    -0.39800
C2421       C  0.05829976  0.77124875  0.27892826    -0.13500
C2422       C  0.06682454  0.78940806  0.27078467     0.16900
C2423       C  0.06422555  0.79370114  0.24960245     0.03200
C2424       C  0.05211383  0.78040839  0.23722100    -0.12000
C2425       C  0.04231895  0.76290107  0.24573185    -0.03000
C2426       C  0.04621190  0.75800504  0.26671265     0.02400
C2427       C  0.07641785  0.80439023  0.28536162     0.09300
N2428       N  0.07263987  0.81213908  0.24080033     0.65600
H2429       H  0.04940409  0.78449888  0.22117785     0.18500
N2430       N  0.03784171  0.73974768  0.27597762     0.76100
H2431       H  0.06052743  0.76765464  0.29517539     0.10100
C2432       C  0.06379347  0.81476854  0.29976521     0.03800
C2433       C  0.07283034  0.82652673  0.31551864    -0.05000
C2434       C  0.09459280  0.82837189  0.31750889    -0.23300
C2435       C  0.10730412  0.81851222  0.30250640     0.13000
C2436       C  0.09811062  0.80660172  0.28662559    -0.12500
N2437       N  0.04162247  0.81317457  0.29875567     0.64700
H2438       H  0.06250891  0.83413165  0.32640817     0.12500
N2439       N  0.12947363  0.81983516  0.30347984     0.61300
H2440       H  0.10796541  0.79849678  0.27565545     0.08700
O2441       O  0.02311781  0.74126441  0.28878304    -0.40100
O2442       O  0.04745549  0.72279409  0.27419487    -0.39300
O2443       O  0.08846612  0.81101633  0.22933436    -0.39300
O2444       O  0.06229084  0.82873840  0.24150017    -0.37000
O2445       O  0.13967034  0.80571121  0.31235560    -0.37900
O2446       O  0.13888888  0.83280280  0.29233677    -0.34100
O2447       O  0.03217496  0.80113421  0.31086472    -0.35500
O2448       O  0.03139882  0.82604811  0.28818345    -0.39800
C2449       C  0.17487226  0.79390603  0.43238145    -0.13500
C2450       C  0.19496616  0.79017730  0.42492962     0.16900
C2451       C  0.20201718  0.80116824  0.40745179     0.03200
C2452       C  0.18911267  0.81608501  0.39815840    -0.12000
C2453       C  0.16925597  0.82035404  0.40612393    -0.03000
C2454       C  0.16202778  0.80877715  0.42320997     0.02400
C2455       C  0.20863617  0.77603376  0.43688609     0.09300
N2456       N  0.22215546  0.79728185  0.39894830     0.65600
H2457       H  0.19483481  0.82470805  0.38497305     0.18500
N2458       N  0.14152755  0.81173866  0.43127392     0.76100
H2459       H  0.16927162  0.78550511  0.44576886     0.10100
C2460       C  0.22457349  0.78397480  0.44959832     0.03800
C2461       C  0.23528020  0.77079248  0.46305370    -0.05000
C2462       C  0.23022455  0.74961708  0.46463187    -0.23300
C2463       C  0.21477146  0.74151893  0.45121813     0.13000
C2464       C  0.20412319  0.75476799  0.43759149    -0.12500
N2465       N  0.22897531  0.80568537  0.45021832     0.64700
H2466       H  0.24719479  0.77749281  0.47293116     0.12500
N2467       N  0.20887980  0.72020310  0.45195186     0.61300
H2468       H  0.19172281  0.74854204  0.42798996     0.08700
O2469       O  0.13904517  0.82182625  0.44783572    -0.40100
O2470       O  0.12660891  0.80124573  0.42403911    -0.39300
O2471       O  0.22499349  0.78136109  0.38793608    -0.39300
O2472       O  0.23562698  0.81150676  0.39893512    -0.37000
O2473       O  0.19420645  0.71463636  0.46361798    -0.37900
O2474       O  0.21574288  0.70777680  0.43849302    -0.34100
O2475       O  0.21694961  0.81766736  0.45998434    -0.35500
O2476       O  0.24668528  0.81212039  0.44481110    -0.39800
C2477       C  0.28911274  0.91083962  0.68248436    -0.13500
C2478       C  0.29298982  0.93114552  0.68928834     0.16900
C2479       C  0.31213792  0.94052749  0.68434864     0.03200
C2480       C  0.32702238  0.92959570  0.67301322    -0.12000
C2481       C  0.32340688  0.90918026  0.66621493    -0.03000
C2482       C  0.30408380  0.89981164  0.67103669     0.02400
C2483       C  0.27781851  0.94213483  0.70272131     0.09300
N2484       N  0.31661753  0.96132996  0.69060013     0.65600
H2485       H  0.34161946  0.93728386  0.66957174     0.18500
N2486       N  0.29928392  0.87926775  0.66429221     0.76100
H2487       H  0.27452725  0.90335948  0.68639338     0.10100
C2488       C  0.25771213  0.94759120  0.69581861     0.03800
C2489       C  0.24513395  0.96053659  0.70804688    -0.05000
C2490       C  0.25223706  0.96798575  0.72724539    -0.23300
C2491       C  0.27159407  0.96087986  0.73487540     0.13000
C2492       C  0.28418606  0.94826092  0.72254614    -0.12500
N2493       N  0.25032488  0.94103566  0.67601059     0.64700
H2494       H  0.23020411  0.96559487  0.70202200     0.12500
N2495       N  0.27853113  0.96604635  0.75527536     0.61300
H2496       H  0.29925653  0.94340091  0.72840579     0.08700
O2497       O  0.28904792  0.87657602  0.64782933    -0.40100
O2498       O  0.30202295  0.86425762  0.67644114    -0.39300
O2499       O  0.32959688  0.96464430  0.70490614    -0.39300
O2500       O  0.31037209  0.97623007  0.67964422    -0.37000
O2501       O  0.27153962  0.95607661  0.77050310    -0.37900
O2502       O  0.29413999  0.97767552  0.75770129    -0.34100
O2503       O  0.23840100  0.92555132  0.67471030    -0.35500
O2504       O  0.25248069  0.95277182  0.66060730    -0.39800
C2505       C  0.29617993  0.97226257  0.53955137    -0.13500
C2506       C  0.31686779  0.97916355  0.53907575     0.16900
C2507       C  0.32140546  0.99827284  0.52955129     0.03200
C2508       C  0.30535729  0.00955469  0.51998715    -0.12000
C2509       C  0.28482458  0.00199198  0.51947302    -0.03000
C2510       C  0.28022157  0.98344729  0.53002789     0.02400
C2511       C  0.33304485  0.96532705  0.54795550     0.09300
N2512       N  0.34228278  0.00579456  0.52828600     0.65600
H2513       H  0.30921009  0.02379661  0.51198251     0.18500
N2514       N  0.25933308  0.97606592  0.53181259     0.76100
H2515       H  0.29238519  0.95788419  0.54735804     0.10100
C2516       C  0.34455801  0.97054141  0.56581383     0.03800
C2517       C  0.35611197  0.95521018  0.57604956    -0.05000
C2518       C  0.35619959  0.93450479  0.56905863    -0.23300
C2519       C  0.34610603  0.92987096  0.55009173     0.13000
C2520       C  0.33474955  0.94523220  0.53984581    -0.12500
N2521       N  0.34334089  0.99077370  0.57477487     0.64700
H2522       H  0.36395224  0.95935574  0.59033714     0.12500
N2523       N  0.34615822  0.90944457  0.54149803     0.61300
H2524       H  0.32621399  0.94111976  0.52593058     0.08700
O2525       O  0.25415213  0.95942675  0.52289672    -0.40100
O2526       O  0.24769581  0.98351478  0.54566234    -0.39300
O2527       O  0.35463051  0.99776677  0.51540085    -0.39300
O2528       O  0.34685602  0.02298352  0.53647191    -0.37000
O2529       O  0.33090587  0.89758296  0.54474833    -0.37900
O2530       O  0.35898179  0.90496675  0.52742421    -0.34100
O2531       O  0.32741468  0.99581280  0.58500659    -0.35500
O2532       O  0.35964188  0.00157778  0.57637406    -0.39800
C2533       C  0.46190547  0.82655858  0.55160094    -0.13500
C2534       C  0.45225191  0.82226920  0.53260726     0.16900
C2535       C  0.43246476  0.83054606  0.52849591     0.03200
C2536       C  0.42218412  0.84204778  0.54366567    -0.12000
C2537       C  0.43108692  0.84532326  0.56333550    -0.03000
C2538       C  0.45153876  0.83795929  0.56699118     0.02400
C2539       C  0.46107605  0.80616487  0.51892026     0.09300
N2540       N  0.42211632  0.82636632  0.50935107     0.65600
H2541       H  0.40662811  0.84757842  0.54021132     0.18500
N2542       N  0.46171961  0.84117074  0.58639770     0.76100
H2543       H  0.47711761  0.82005505  0.55491706     0.10100
C2544       C  0.47790073  0.81000981  0.50556118     0.03800
C2545       C  0.48575167  0.79389292  0.49318846    -0.05000
C2546       C  0.47721035  0.77389332  0.49426490    -0.23300
C2547       C  0.46025356  0.77019615  0.50754117     0.13000
C2548       C  0.45237780  0.78630810  0.51969712    -0.12500
N2549       N  0.48731781  0.83002817  0.50472300     0.64700
H2550       H  0.49901419  0.79682004  0.48322918     0.12500
N2551       N  0.45060553  0.75026292  0.50852601     0.61300
H2552       H  0.43930911  0.78331072  0.52989621     0.08700
O2553       O  0.47433358  0.85602393  0.58843023    -0.40100
O2554       O  0.46135183  0.82705151  0.59983669    -0.39300
O2555       O  0.40813485  0.81265454  0.50857132    -0.39300
O2556       O  0.42422507  0.83874024  0.49444698    -0.37000
O2557       O  0.44873339  0.74133744  0.52574879    -0.37900
O2558       O  0.44051256  0.74357236  0.49313259    -0.34100
O2559       O  0.50361795  0.83363048  0.51504167    -0.35500
O2560       O  0.48116880  0.84300999  0.49151573    -0.39800
C2561       C  0.40583295  0.81231215  0.71331515    -0.13500
C2562       C  0.42706285  0.80749855  0.71194876     0.16900
C2563       C  0.43813334  0.81276525  0.69404323     0.03200
C2564       C  0.42800243  0.82260382  0.67776043    -0.12000
C2565       C  0.40668188  0.82757122  0.67877513    -0.03000
C2566       C  0.39553310  0.82228201  0.69690909     0.02400
C2567       C  0.43734607  0.79496231  0.72803201     0.09300
N2568       N  0.45978725  0.80805826  0.69216493     0.65600
H2569       H  0.43712498  0.82644874  0.66421999     0.18500
N2570       N  0.37386307  0.82678043  0.69894808     0.76100
H2571       H  0.39715407  0.80795858  0.72699560     0.10100
C2572       C  0.44553182  0.80385640  0.74623653     0.03800
C2573       C  0.45799959  0.79184472  0.75941477    -0.05000
C2574       C  0.46284916  0.77123973  0.75431181    -0.23300
C2575       C  0.45362086  0.76212811  0.73665851     0.13000
C2576       C  0.44098222  0.77402783  0.72375248    -0.12500
N2577       N  0.44279077  0.82540221  0.75057357     0.64700
H2578       H  0.46523470  0.79911741  0.77277383     0.12500
N2579       N  0.45724345  0.74088489  0.73145445     0.61300
H2580       H  0.43455591  0.76708034  0.70981929     0.08700
O2581       O  0.36817361  0.84246488  0.70917326    -0.40100
O2582       O  0.36061705  0.81319370  0.69401138    -0.39300
O2583       O  0.46546309  0.79262064  0.68156724    -0.39300
O2584       O  0.47316098  0.82106333  0.69820389    -0.37000
O2585       O  0.44846157  0.72684598  0.74178581    -0.37900
O2586       O  0.46586899  0.73633136  0.71452327    -0.34100
O2587       O  0.43174245  0.83095588  0.76571437    -0.35500
O2588       O  0.45412098  0.83855703  0.74160715    -0.39800
C2589       C  0.31293145  0.78619020  0.58796143    -0.13500
C2590       C  0.30847500  0.78878851  0.56685980     0.16900
C2591       C  0.31550560  0.80673911  0.55679728     0.03200
C2592       C  0.32655117  0.82178394  0.56776051    -0.12000
C2593       C  0.33108481  0.81952323  0.58893403    -0.03000
C2594       C  0.32407777  0.80139760  0.59909281     0.02400
C2595       C  0.29497898  0.77387585  0.55557185     0.09300
N2596       N  0.31168103  0.80980608  0.53524345     0.65600
H2597       H  0.33167512  0.83540226  0.55940790     0.18500
N2598       N  0.32812596  0.79813348  0.62056238     0.76100
H2599       H  0.30735648  0.77250337  0.59591979     0.10100
C2600       C  0.30159644  0.75366930  0.55050586     0.03800
C2601       C  0.28926842  0.74117889  0.53749769    -0.05000
C2602       C  0.27051549  0.74867519  0.52909689    -0.23300
C2603       C  0.26344234  0.76852732  0.53525597     0.13000
C2604       C  0.27564063  0.78079190  0.54836925    -0.12500
N2605       N  0.32146404  0.74626684  0.55712969     0.64700
H2606       H  0.29508521  0.72605571  0.53290059     0.12500
N2607       N  0.24395142  0.77657949  0.52824130     0.61300
H2608       H  0.27020821  0.79619155  0.55253232     0.08700
O2609       O  0.34274545  0.78626351  0.62596885    -0.40100
O2610       O  0.31496837  0.80401227  0.63380053    -0.39300
O2611       O  0.29847713  0.82308972  0.52953394    -0.39300
O2612       O  0.32380645  0.80185719  0.52210452    -0.37000
O2613       O  0.22748794  0.77184604  0.53771748    -0.37900
O2614       O  0.24368779  0.79136446  0.51552740    -0.34100
O2615       O  0.32252542  0.73196974  0.57034032    -0.35500
O2616       O  0.33762468  0.75158999  0.54744932    -0.39800
C2617       C  0.01365762  0.23673672  0.35501529    -0.13500
C2618       C  0.99648100  0.24593370  0.36468845     0.16900
C2619       C  0.98001476  0.25334405  0.35239964     0.03200
C2620       C  0.98092960  0.25140907  0.33081974    -0.12000
C2621       C  0.99814943  0.24218105  0.32086516    -0.03000
C2622       C  0.01474671  0.23490374  0.33339854     0.02400
C2623       C  0.99626643  0.24813960  0.38757737     0.09300
N2624       N  0.96198485  0.26238884  0.36167125     0.65600
H2625       H  0.96785162  0.25710065  0.32186872     0.18500
N2626       N  0.03309111  0.22606718  0.32459821     0.76100
H2627       H  0.02658775  0.23128669  0.36434472     0.10100
C2628       C  0.99506621  0.23067042  0.40049064     0.03800
C2629       C  0.99491607  0.23315588  0.42201905    -0.05000
C2630       C  0.99646429  0.25287830  0.43119427    -0.23300
C2631       C  0.99812516  0.27038684  0.41820121     0.13000
C2632       C  0.99780718  0.26788377  0.39660899    -0.12500
N2633       N  0.99374158  0.21028882  0.39191932     0.64700
H2634       H  0.99377190  0.21947243  0.43163653     0.12500
N2635       N  0.99951665  0.29083561  0.42661349     0.61300
H2636       H  0.99891276  0.28144275  0.38681043     0.08700
O2637       O  0.03690904  0.20710443  0.32735353    -0.40100
O2638       O  0.04740230  0.23785706  0.31833282    -0.39300
O2639       O  0.95939832  0.28175219  0.36101813    -0.39300
O2640       O  0.94714837  0.25090485  0.36725943    -0.37000
O2641       O  0.01702002  0.29962599  0.42780700    -0.37900
O2642       O  0.98316756  0.30136994  0.42912025    -0.34100
O2643       O  0.01003905  0.19954500  0.39003898    -0.35500
O2644       O  0.97617871  0.20180841  0.38973913    -0.39800
C2645       C  0.05342157  0.19187616  0.24405175    -0.13500
C2646       C  0.05861046  0.20203361  0.22556964     0.16900
C2647       C  0.05070765  0.22204976  0.22202066     0.03200
C2648       C  0.03669655  0.23088341  0.23597803    -0.12000
C2649       C  0.03036472  0.22030362  0.25383021    -0.03000
C2650       C  0.03934884  0.20081616  0.25820211     0.02400
C2651       C  0.06896385  0.19046982  0.20851178     0.09300
N2652       N  0.05636287  0.23333451  0.20390390     0.65600
H2653       H  0.03032760  0.24608179  0.23255543     0.18500
N2654       N  0.03291597  0.18908529  0.27576759     0.76100
H2655       H  0.05913504  0.17629015  0.24678836     0.10100
C2656       C  0.08952108  0.18301561  0.20993917     0.03800
C2657       C  0.09831292  0.17198579  0.19330136    -0.05000
C2658       C  0.08679636  0.16791614  0.17518388    -0.23300
C2659       C  0.06606672  0.17536075  0.17398008     0.13000
C2660       C  0.05750750  0.18649857  0.19047804    -0.12500
N2661       N  0.10168219  0.18673130  0.22807635     0.64700
H2662       H  0.11414093  0.16626805  0.19473657     0.12500
N2663       N  0.05345935  0.17197959  0.15604218     0.61300
H2664       H  0.04154902  0.19194729  0.18927117     0.08700
O2665       O  0.04626765  0.18343183  0.28892249    -0.40100
O2666       O  0.01499669  0.18108126  0.27601903    -0.39300
O2667       O  0.04283113  0.23720606  0.19028452    -0.39300
O2668       O  0.07396739  0.24193782  0.20296153    -0.37000
O2669       O  0.04091319  0.15693598  0.15563835    -0.37900
O2670       O  0.05173202  0.18616872  0.14278512    -0.34100
O2671       O  0.10537915  0.17207873  0.24041025    -0.35500
O2672       O  0.11105117  0.20377714  0.23026671    -0.39800
C2673       C  0.98657149  0.26281015  0.89513376    -0.13500
C2674       C  0.99929882  0.24842047  0.88494351     0.16900
C2675       C  0.01118877  0.23448460  0.89685978     0.03200
C2676       C  0.00945490  0.23461311  0.91838902    -0.12000
C2677       C  0.99602027  0.24840650  0.92873766    -0.03000
C2678       C  0.98470930  0.26292488  0.91673846     0.02400
C2679       C  0.00064965  0.24870380  0.86199643     0.09300
N2680       N  0.02489823  0.21984152  0.88735646     0.65600
H2681       H  0.01869986  0.22351972  0.92701066     0.18500
N2682       N  0.97121379  0.27788539  0.92598559     0.76100
H2683       H  0.97793750  0.27415445  0.88620570     0.10100
C2684       C  0.98277202  0.24729895  0.84936397     0.03800
C2685       C  0.98478422  0.24740267  0.82781991    -0.05000
C2686       C  0.00440249  0.24873042  0.81831857    -0.23300
C2687       C  0.02231176  0.25015781  0.83104664     0.13000
C2688       C  0.02016444  0.25060930  0.85259670    -0.12500
N2689       N  0.96246203  0.24549892  0.85814420     0.64700
H2690       H  0.97076733  0.24650609  0.81846689     0.12500
N2691       N  0.04284090  0.24965524  0.82258480     0.61300
H2692       H  0.03400403  0.25200736  0.86214160     0.08700
O2693       O  0.97499397  0.29689782  0.92350981    -0.40100
O2694       O  0.95333978  0.27239862  0.93188328    -0.39300
O2695       O  0.04432318  0.22197250  0.88941770    -0.39300
O2696       O  0.01772019  0.20292897  0.88059559    -0.37000
O2697       O  0.05654090  0.26183621  0.82959630    -0.37900
O2698       O  0.04845424  0.23399737  0.81227628    -0.34100
O2699       O  0.95002252  0.26059055  0.85707713    -0.35500
O2700       O  0.95568539  0.22788808  0.86318811    -0.39800
C2701       C  0.03981710  0.17259874  0.05285453    -0.13500
C2702       C  0.03952037  0.16538921  0.03236481     0.16900
C2703       C  0.05198688  0.14820354  0.02697953     0.03200
C2704       C  0.06467224  0.13887035  0.04197233    -0.12000
C2705       C  0.06494778  0.14616642  0.06245577    -0.03000
C2706       C  0.05226773  0.16321438  0.06784949     0.02400
C2707       C  0.02807333  0.17778117  0.01670642     0.09300
N2708       N  0.05167315  0.13989989  0.00647135     0.65600
H2709       H  0.07423320  0.12568452  0.03760339     0.18500
N2710       N  0.05303054  0.17219463  0.08808099     0.76100
H2711       H  0.03101835  0.18634826  0.05709333     0.10100
C2712       C  0.00739296  0.18419123  0.02031893     0.03800
C2713       C  0.99880091  0.20021290  0.00859104    -0.05000
C2714       C  0.01013096  0.20954892  0.99263954    -0.23300
C2715       C  0.03017751  0.20200668  0.98786591     0.13000
C2716       C  0.03904433  0.18639478  0.00005118    -0.12500
N2717       N  0.99508381  0.17469806  0.03606288     0.64700
H2718       H  0.98310272  0.20545919  0.01202753     0.12500
N2719       N  0.04240794  0.21127747  0.97195486     0.61300
H2720       H  0.05512920  0.18198367  0.99731028     0.08700
O2721       O  0.03740596  0.17090614  0.09979322    -0.40100
O2722       O  0.06783164  0.18414297  0.09288952    -0.39300
O2723       O  0.06796304  0.14035550  0.99561379    -0.39300
O2724       O  0.03639108  0.12907479  0.00062134    -0.37000
O2725       O  0.05271482  0.22748289  0.97580646    -0.37900
O2726       O  0.04551556  0.20156779  0.95527813    -0.34100
O2727       O  0.98790421  0.18550156  0.05070437    -0.35500
O2728       O  0.98905696  0.15622188  0.03380537    -0.39800
C2729       C  0.34811668  0.00860795  0.23629163    -0.13500
C2730       C  0.35732823  0.99649189  0.25174024     0.16900
C2731       C  0.34436736  0.98626413  0.26599760     0.03200
C2732       C  0.32265330  0.98786731  0.26426377    -0.12000
C2733       C  0.31325589  0.99984709  0.24865653    -0.03000
C2734       C  0.32641759  0.01048954  0.23467325     0.02400
C2735       C  0.38045247  0.99542665  0.25322050     0.09300
N2736       N  0.35304390  0.97394486  0.28217393     0.65600
H2737       H  0.31310015  0.97972312  0.27542432     0.18500
N2738       N  0.31815938  0.02315725  0.21858196     0.76100
H2739       H  0.35791129  0.01696422  0.22548099     0.10100
C2740       C  0.39266618  0.98809001  0.23665218     0.03800
C2741       C  0.41444088  0.98814399  0.23817740    -0.05000
C2742       C  0.42466115  0.99554932  0.25599890    -0.23300
C2743       C  0.41226474  0.00305340  0.27258840     0.13000
C2744       C  0.39048387  0.00287640  0.27100865    -0.12500
N2745       N  0.38313761  0.98025446  0.21824230     0.64700
H2746       H  0.42337952  0.98237891  0.22513987     0.12500
N2747       N  0.42138345  0.01096384  0.29118086     0.61300
H2748       H  0.38129917  0.00899916  0.28372398     0.08700
O2749       O  0.31684893  0.01590784  0.20048419    -0.40100
O2750       O  0.31692780  0.04248128  0.22134928    -0.39300
O2751       O  0.35321176  0.98079430  0.30047325    -0.39300
O2752       O  0.35721133  0.95513334  0.27882456    -0.37000
O2753       O  0.42288280  0.99940753  0.30680676    -0.37900
O2754       O  0.42419879  0.03021719  0.29318111    -0.34100
O2755       O  0.38428819  0.99050006  0.20170390    -0.35500
O2756       O  0.37678521  0.96176750  0.21767595    -0.39800
C2757       C  0.18439708  0.94528604  0.31211077    -0.13500
C2758       C  0.19989293  0.93408448  0.30172141     0.16900
C2759       C  0.20084512  0.91246738  0.30440268     0.03200
C2760       C  0.18647133  0.90246256  0.31734821    -0.12000
C2761       C  0.17086198  0.91361649  0.32789028    -0.03000
C2762       C  0.17002131  0.93541984  0.32506598     0.02400
C2763       C  0.21517795  0.94550885  0.28870912     0.09300
N2764       N  0.21591428  0.90038953  0.29352681     0.65600
H2765       H  0.18751409  0.88578761  0.31901051     0.18500
N2766       N  0.15492740  0.94795558  0.33543153     0.76100
H2767       H  0.18362282  0.96198270  0.31037046     0.10100
C2768       C  0.20848402  0.95742801  0.27176563     0.03800
C2769       C  0.22248463  0.97051005  0.26162845    -0.05000
C2770       C  0.24347740  0.97202320  0.26778774    -0.23300
C2771       C  0.25041234  0.95933587  0.28423652     0.13000
C2772       C  0.23624976  0.94631735  0.29453177    -0.12500
N2773       N  0.18746874  0.95625417  0.26455127     0.64700
H2774       H  0.21673410  0.97960588  0.24875000     0.12500
N2775       N  0.27141339  0.96027130  0.29146035     0.61300
H2776       H  0.24157836  0.93740632  0.30771690     0.08700
O2777       O  0.15955729  0.95650834  0.35240544    -0.40100
O2778       O  0.13863600  0.95342480  0.32598364    -0.39300
O2779       O  0.23173845  0.89367247  0.30294061    -0.39300
O2780       O  0.21178971  0.89374736  0.27560958    -0.37000
O2781       O  0.27628127  0.97300533  0.30550687    -0.37900
O2782       O  0.28403998  0.94614577  0.28648540    -0.34100
O2783       O  0.17580397  0.97193071  0.26585200    -0.35500
O2784       O  0.18179208  0.94092864  0.25376630    -0.39800
C2785       C  0.23957929  0.05779665  0.19802558    -0.13500
C2786       C  0.22136366  0.06455255  0.20794152     0.16900
C2787       C  0.21735655  0.05793176  0.22825515     0.03200
C2788       C  0.23052468  0.04354956  0.23765512    -0.12000
C2789       C  0.24791962  0.03550015  0.22725748    -0.03000
C2790       C  0.25284317  0.04323492  0.20743030     0.02400
C2791       C  0.20469429  0.07467464  0.19568247     0.09300
N2792       N  0.19939522  0.06505069  0.23917469     0.65600
H2793       H  0.22672969  0.03814599  0.25306874     0.18500
N2794       N  0.26980053  0.03494097  0.19575413     0.76100
H2795       H  0.24256821  0.06247865  0.18220783     0.10100
C2796       C  0.20705733  0.09434604  0.18664623     0.03800
C2797       C  0.19102469  0.10254556  0.17432183    -0.05000
C2798       C  0.17263078  0.09126637  0.17054602    -0.23300
C2799       C  0.17042689  0.07149329  0.17971602     0.13000
C2800       C  0.18634072  0.06351317  0.19208351    -0.12500
N2801       N  0.22556206  0.10617053  0.18994450     0.64700
H2802       H  0.19316534  0.11766800  0.16738049     0.12500
N2803       N  0.15213297  0.05922694  0.17671202     0.61300
H2804       H  0.18448819  0.04818202  0.19867528     0.08700
O2805       O  0.28315363  0.04706207  0.18817837    -0.40100
O2806       O  0.26896610  0.01644724  0.18940529    -0.39300
O2807       O  0.18450391  0.05277659  0.24253495    -0.39300
O2808       O  0.19990859  0.08234525  0.24831077    -0.37000
O2809       O  0.15201605  0.04526549  0.16300067    -0.37900
O2810       O  0.13794050  0.05956250  0.19016437    -0.34100
O2811       O  0.23840317  0.10840394  0.17538696    -0.35500
O2812       O  0.22743293  0.11695996  0.20614682    -0.39800
C2813       C  0.24103513  0.84170542  0.97813213    -0.13500
C2814       C  0.25029000  0.85202297  0.99487344     0.16900
C2815       C  0.26007609  0.84029683  0.01042751     0.03200
C2816       C  0.26089186  0.81868979  0.00879206    -0.12000
C2817       C  0.25199881  0.80816087  0.99184332    -0.03000
C2818       C  0.24167372  0.82004745  0.97648632     0.02400
C2819       C  0.24904730  0.87496088  0.99628094     0.09300
N2820       N  0.26978876  0.85018187  0.02773298     0.65600
H2821       H  0.26885780  0.81017893  0.02088504     0.18500
N2822       N  0.23146548  0.81052293  0.95925834     0.76100
H2823       H  0.23295824  0.85054713  0.96633488     0.10100
C2824       C  0.25823186  0.88777554  0.98125149     0.03800
C2825       C  0.25729181  0.90937292  0.98340688    -0.05000
C2826       C  0.24694004  0.91867641  0.00019883    -0.23300
C2827       C  0.23721638  0.90572358  0.01491014     0.13000
C2828       C  0.23843856  0.88413232  0.01286636    -0.12500
N2829       N  0.26892166  0.87905573  0.96392983     0.64700
H2830       H  0.26465461  0.91892157  0.97174542     0.12500
N2831       N  0.22664155  0.91415066  0.03241666     0.61300
H2832       H  0.23104139  0.87441911  0.02437697     0.08700
O2833       O  0.21244934  0.80582778  0.96057820    -0.40100
O2834       O  0.24023011  0.81032054  0.94181671    -0.39300
O2835       O  0.26113894  0.84957003  0.04521880    -0.39300
O2836       O  0.28847544  0.85602289  0.02639522    -0.37000
O2837       O  0.20702225  0.91507067  0.03235955    -0.37900
O2838       O  0.23643541  0.91673190  0.04915739    -0.34100
O2839       O  0.25984794  0.87786456  0.94664278    -0.35500
O2840       O  0.28825363  0.87580217  0.96503333    -0.39800
C2841       C  0.19301766  0.99595636  0.05149543    -0.13500
C2842       C  0.18277000  0.01092883  0.03939664     0.16900
C2843       C  0.18704963  0.01162690  0.01795803     0.03200
C2844       C  0.20225308  0.99860826  0.00948794    -0.12000
C2845       C  0.21283436  0.98417172  0.02173090    -0.03000
C2846       C  0.20772111  0.98243537  0.04279663     0.02400
C2847       C  0.16992665  0.02729957  0.04967376     0.09300
N2848       N  0.17611801  0.02551381  0.00460577     0.65600
H2849       H  0.20592327  0.99984413  0.99313029     0.18500
N2850       N  0.21848676  0.96817736  0.05584604     0.76100
H2851       H  0.19052224  0.99548236  0.06810028     0.10100
C2852       C  0.15487466  0.02256489  0.06485033     0.03800
C2853       C  0.14476073  0.03857543  0.07557365    -0.05000
C2854       C  0.14902867  0.05948829  0.07137838    -0.23300
C2855       C  0.16397514  0.06423925  0.05610134     0.13000
C2856       C  0.17426349  0.04823750  0.04559985    -0.12500
N2857       N  0.14951695  0.00158961  0.06942894     0.64700
H2858       H  0.13328781  0.03456204  0.08721106     0.12500
N2859       N  0.16999058  0.08516220  0.05207097     0.61300
H2860       H  0.18646899  0.05230039  0.03474028     0.08700
O2861       O  0.20882607  0.95298333  0.06341760    -0.40100
O2862       O  0.23642579  0.97261763  0.06249136    -0.39300
O2863       O  0.18604523  0.03900748  0.99456160    -0.39300
O2864       O  0.15729133  0.02203446  0.00022270    -0.37000
O2865       O  0.18306477  0.09396779  0.06374206    -0.37900
O2866       O  0.16507251  0.09347384  0.03512058    -0.34100
O2867       O  0.15306838  0.99441930  0.08722134    -0.35500
O2868       O  0.13825427  0.99146842  0.05698846    -0.39800
C2869       C  0.27257896  0.38632888  0.00058185    -0.13500
C2870       C  0.25379515  0.37699953  0.99481086     0.16900
C2871       C  0.23640569  0.38959380  0.99082438     0.03200
C2872       C  0.23812079  0.41115155  0.99247658    -0.12000
C2873       C  0.25697859  0.42080057  0.99822654    -0.03000
C2874       C  0.27435154  0.40792497  0.00237041     0.02400
C2875       C  0.25222053  0.35408612  0.99458713     0.09300
N2876       N  0.21691251  0.38067374  0.98494843     0.65600
H2877       H  0.22432795  0.42036293  0.98937163     0.18500
N2878       N  0.29409128  0.41627196  0.00795688     0.76100
H2879       H  0.28602979  0.37669042  0.00396640     0.10100
C2880       C  0.26384445  0.34186397  0.98075745     0.03800
C2881       C  0.26271780  0.32021411  0.98182808    -0.05000
C2882       C  0.25024392  0.31013807  0.99665211    -0.23300
C2883       C  0.23883976  0.32268661  0.01071236     0.13000
C2884       C  0.23984331  0.34432630  0.00938003    -0.12500
N2885       N  0.27654017  0.35125863  0.96528733     0.64700
H2886       H  0.27177773  0.31126458  0.97078483     0.12500
N2887       N  0.22635238  0.31399168  0.02668726     0.61300
H2888       H  0.23121490  0.35367557  0.02045777     0.08700
O2889       O  0.30640088  0.42144972  0.99371585    -0.40100
O2890       O  0.30137699  0.41218438  0.02561159    -0.39300
O2891       O  0.20247492  0.37930910  0.99806933    -0.39300
O2892       O  0.21300066  0.37747180  0.96608122    -0.37000
O2893       O  0.23504352  0.30826660  0.04322689    -0.37900
O2894       O  0.20704184  0.31757643  0.02670231    -0.34100
O2895       O  0.29607109  0.35138046  0.96737736    -0.35500
O2896       O  0.26857590  0.35634621  0.94819442    -0.39800
C2897       C  0.20019465  0.23649074  0.05262397    -0.13500
C2898       C  0.20677932  0.21599948  0.05532788     0.16900
C2899       C  0.22471428  0.20909797  0.04494993     0.03200
C2900       C  0.23510259  0.22240032  0.03135512    -0.12000
C2901       C  0.22787865  0.24265927  0.02755927    -0.03000
C2902       C  0.21044577  0.24985446  0.03889623     0.02400
C2903       C  0.19307641  0.20141566  0.06658829     0.09300
N2904       N  0.23183119  0.18823594  0.04704871     0.65600
H2905       H  0.24860727  0.21651447  0.02319297     0.18500
N2906       N  0.20188689  0.27001787  0.03570970     0.76100
H2907       H  0.18624181  0.24181367  0.06042880     0.10100
C2908       C  0.19795606  0.19376803  0.08640278     0.03800
C2909       C  0.18437898  0.17982467  0.09617011    -0.05000
C2910       C  0.16594790  0.17325146  0.08641209    -0.23300
C2911       C  0.16102744  0.18124494  0.06664056     0.13000
C2912       C  0.17456389  0.19513119  0.05699606    -0.12500
N2913       N  0.21643350  0.20025377  0.09688935     0.64700
H2914       H  0.18844216  0.17386322  0.11131375     0.12500
N2915       N  0.14203140  0.17589310  0.05637164     0.61300
H2916       H  0.17058238  0.20108990  0.04181949     0.08700
O2917       O  0.19816674  0.28139923  0.05118160    -0.40100
O2918       O  0.19341447  0.27419029  0.01860155    -0.39300
O2919       O  0.22371643  0.17415821  0.03610865    -0.39300
O2920       O  0.24872107  0.18469575  0.05637851    -0.37000
O2921       O  0.12581200  0.18636121  0.05982680    -0.37900
O2922       O  0.14233132  0.16330842  0.04139843    -0.34100
O2923       O  0.21637751  0.21704586  0.10693152    -0.35500
O2924       O  0.23107501  0.18751108  0.09957200    -0.39800
C2925       C  0.89015078  0.01124545  0.24129605    -0.13500
C2926       C  0.88083114  0.00488930  0.25978945     0.16900
C2927       C  0.89349732  0.99727928  0.27583157     0.03200
C2928       C  0.91507211  0.99601499  0.27314665    -0.12000
C2929       C  0.92460146  0.00208001  0.25451987    -0.03000
C2930       C  0.91174752  0.00982724  0.23844445     0.02400
C2931       C  0.85778568  0.00436293  0.26130013     0.09300
N2932       N  0.88463748  0.99085163  0.29501589     0.65600
H2933       H  0.92436848  0.99014680  0.28585612     0.18500
N2934       N  0.92009169  0.01539120  0.21877180     0.76100
H2935       H  0.88047607  0.01662071  0.22862993     0.10100
C2936       C  0.84566587  0.02250453  0.25988111     0.03800
C2937       C  0.82387660  0.02118264  0.26011786    -0.05000
C2938       C  0.81379586  0.00191153  0.26124552    -0.23300
C2939       C  0.82602331  0.98374611  0.26280837     0.13000
C2940       C  0.84776598  0.98515578  0.26292082    -0.12500
N2941       N  0.85529412  0.04234727  0.25800778     0.64700
H2942       H  0.81480040  0.03529677  0.25878897     0.12500
N2943       N  0.81664308  0.96374379  0.26447548     0.61300
H2944       H  0.85692590  0.97105322  0.26379920     0.08700
O2945       O  0.92174483  0.03425842  0.21401419    -0.40100
O2946       O  0.92215389  0.00169530  0.20495372    -0.39300
O2947       O  0.88387240  0.97183217  0.29938971    -0.39300
O2948       O  0.88088131  0.00415009  0.30885662    -0.37000
O2949       O  0.81512196  0.95236844  0.24863329    -0.37900
O2950       O  0.81360752  0.95603686  0.28211458    -0.34100
O2951       O  0.85549088  0.05131167  0.24070358    -0.35500
O2952       O  0.86029830  0.05231272  0.27408009    -0.39800
C2953       C  0.02411228  0.96685773  0.29915998    -0.13500
C2954       C  0.01348521  0.95470897  0.31359591     0.16900
C2955       C  0.99154204  0.95377463  0.31272336     0.03200
C2956       C  0.98085046  0.96434822  0.29701181    -0.12000
C2957       C  0.99152703  0.97651251  0.28244748    -0.03000
C2958       C  0.01348066  0.97801248  0.28400186     0.02400
C2959       C  0.02609641  0.94293552  0.32884811     0.09300
N2960       N  0.97986588  0.94294061  0.32809557     0.65600
H2961       H  0.96401821  0.96324219  0.29643805     0.18500
N2962       N  0.02528777  0.99141169  0.27094482     0.76100
H2963       H  0.04096177  0.96786942  0.29977455     0.10100
C2964       C  0.02543649  0.92110474  0.32990072     0.03800
C2965       C  0.03991711  0.91055377  0.34222401    -0.05000
C2966       C  0.05586190  0.92120615  0.35276508    -0.23300
C2967       C  0.05592190  0.94307701  0.35235189     0.13000
C2968       C  0.04096438  0.95366755  0.34069354    -0.12500
N2969       N  0.01173132  0.90930642  0.31694110     0.64700
H2970       H  0.03974338  0.89375166  0.34204797     0.12500
N2971       N  0.07139763  0.95478715  0.36315067     0.61300
H2972       H  0.04156919  0.97045152  0.34010724     0.08700
O2973       O  0.03835446  0.98377817  0.25853104    -0.40100
O2974       O  0.02576729  0.01058381  0.27480902    -0.39300
O2975       O  0.98043154  0.94910126  0.34662882    -0.39300
O2976       O  0.96618380  0.92997450  0.32265908    -0.37000
O2977       O  0.08651514  0.96234403  0.35329180    -0.37900
O2978       O  0.06786648  0.96087525  0.38136685    -0.34100
O2979       O  0.01390079  0.90990131  0.29755964    -0.35500
O2980       O  0.00028538  0.89554209  0.32479595    -0.39800
C2981       C  0.01940622  0.01394551  0.19280835    -0.13500
C2982       C  0.01866927  0.03556241  0.19072865     0.16900
C2983       C  0.00327368  0.04680734  0.20161899     0.03200
C2984       C  0.98930141  0.03637665  0.21452230    -0.12000
C2985       C  0.99077238  0.01492698  0.21730688    -0.03000
C2986       C  0.00577615  0.00361723  0.20609679     0.02400
C2987       C  0.03360543  0.04606500  0.17669868     0.09300
N2988       N  0.00259032  0.06892834  0.20086974     0.65600
H2989       H  0.97812065  0.04527927  0.22347406     0.18500
N2990       N  0.00703624  0.98157908  0.20778567     0.76100
H2991       H  0.03062355  0.00497461  0.18398164     0.10100
C2992       C  0.05528425  0.04276430  0.17824607     0.03800
C2993       C  0.06885665  0.05315193  0.16491184    -0.05000
C2994       C  0.06134983  0.06726478  0.15017670    -0.23300
C2995       C  0.03958180  0.06987424  0.14809662     0.13000
C2996       C  0.02602035  0.05922087  0.16120921    -0.12500
N2997       N  0.06384698  0.02992915  0.19410255     0.64700
H2998       H  0.08550108  0.05104087  0.16699001     0.12500
N2999       N  0.03095453  0.08319798  0.13270244     0.61300
H3000       H  0.00935174  0.06129806  0.15928205     0.08700
O3001       O  0.02296825  0.97333905  0.21569140    -0.40100
O3002       O  0.99397586  0.97039595  0.19835311    -0.39300
O3003       O  0.98695497  0.07789205  0.19316266    -0.39300
O3004       O  0.01585790  0.07938133  0.21084214    -0.37000
O3005       O  0.02795763  0.07635292  0.11464234    -0.37900
O3006       O  0.02308050  0.10032566  0.13797532    -0.34100
O3007       O  0.07320657  0.01342165  0.18928306    -0.35500
O3008       O  0.06504367  0.03670652  0.21239112    -0.39800
C3009       C  0.61040626  0.97691590  0.74989188    -0.13500
C3010       C  0.61950405  0.99163746  0.76303081     0.16900
C3011       C  0.60671914  0.00407831  0.77551231     0.03200
C3012       C  0.58512981  0.00142500  0.77496739    -0.12000
C3013       C  0.57570632  0.98657277  0.76192582    -0.03000
C3014       C  0.58872600  0.97429913  0.74912009     0.02400
C3015       C  0.64232428  0.99446579  0.76284757     0.09300
N3016       N  0.61549090  0.01948686  0.78883689     0.65600
H3017       H  0.57570489  0.01130858  0.78478462     0.18500
N3018       N  0.58041607  0.95905299  0.73533321     0.76100
H3019       H  0.62024957  0.96741990  0.74007156     0.10100
C3020       C  0.65565601  0.98015823  0.77238997     0.03800
C3021       C  0.67721658  0.98293686  0.77133172    -0.05000
C3022       C  0.68607284  0.99986676  0.76072959    -0.23300
C3023       C  0.67242026  0.01417171  0.75109171     0.13000
C3024       C  0.65081386  0.01140020  0.75241262    -0.12500
N3025       N  0.64747863  0.96292377  0.78354760     0.64700
H3026       H  0.68700857  0.97164020  0.77900236     0.12500
N3027       N  0.67998193  0.03147405  0.73968372     0.61300
H3028       H  0.64054148  0.02238588  0.74487107     0.08700
O3029       O  0.57463891  0.94179630  0.74240278    -0.40100
O3030       O  0.58348160  0.96088470  0.71616116    -0.39300
O3031       O  0.61549126  0.03821532  0.78331902    -0.39300
O3032       O  0.62009273  0.01491783  0.80723835    -0.37000
O3033       O  0.67604164  0.04953498  0.74609658    -0.37900
O3034       O  0.68541814  0.02887301  0.72111421    -0.34100
O3035       O  0.64674273  0.94531239  0.77505363    -0.35500
O3036       O  0.64438115  0.96453419  0.80274561    -0.39800
C3037       C  0.47223819  0.91792634  0.67627428    -0.13500
C3038       C  0.46795874  0.93773544  0.68394227     0.16900
C3039       C  0.45032375  0.94844797  0.67668806     0.03200
C3040       C  0.43660383  0.93873085  0.66285171    -0.12000
C3041       C  0.44029318  0.91844154  0.65569426    -0.03000
C3042       C  0.45879119  0.90827090  0.66215806     0.02400
C3043       C  0.48163455  0.94658873  0.70014396     0.09300
N3044       N  0.44633801  0.96930618  0.68301668     0.65600
H3045       H  0.42282991  0.94709102  0.65791680     0.18500
N3046       N  0.46399744  0.88794309  0.65503510     0.76100
H3047       H  0.48595683  0.90970920  0.68161662     0.10100
C3048       C  0.47532988  0.94708043  0.72093867     0.03800
C3049       C  0.48836667  0.95587359  0.73591263    -0.05000
C3050       C  0.50795702  0.96413495  0.73070983    -0.23300
C3051       C  0.51446775  0.96313552  0.70979769     0.13000
C3052       C  0.50128814  0.95424583  0.69482153    -0.12500
N3053       N  0.45603878  0.93802102  0.72717783     0.64700
H3054       H  0.48313819  0.95597421  0.75185671     0.12500
N3055       N  0.53382261  0.97185330  0.70322588     0.61300
H3056       H  0.50618477  0.95380784  0.67877639     0.08700
O3057       O  0.46102833  0.87256927  0.66666165    -0.40100
O3058       O  0.47499185  0.88584849  0.63901827    -0.39300
O3059       O  0.45505159  0.98399045  0.67355220    -0.39300
O3060       O  0.43126396  0.97315279  0.69489694    -0.37000
O3061       O  0.54569773  0.96140895  0.69167764    -0.37900
O3062       O  0.53694415  0.99105701  0.70526097    -0.34100
O3063       O  0.45511161  0.91876896  0.73036725    -0.35500
O3064       O  0.44139170  0.94950515  0.73331032    -0.39800
C3065       C  0.50553472  0.25755947  0.65331128    -0.13500
C3066       C  0.48872663  0.24695283  0.64452464     0.16900
C3067       C  0.47530630  0.23571110  0.65745440     0.03200
C3068       C  0.47902104  0.23505423  0.67885461    -0.12000
C3069       C  0.49609688  0.24546531  0.68791301    -0.03000
C3070       C  0.50949482  0.25686903  0.67464897     0.02400
C3071       C  0.48656768  0.24659102  0.62165881     0.09300
N3072       N  0.45764791  0.22514792  0.64907478     0.65600
H3073       H  0.46830201  0.22635279  0.68840723     0.18500
N3074       N  0.52757663  0.26738464  0.68220973     0.76100
H3075       H  0.51613351  0.26597773  0.64335092     0.10100
C3076       C  0.47910319  0.26383090  0.61073014     0.03800
C3077       C  0.47908276  0.26371503  0.58903255    -0.05000
C3078       C  0.48694327  0.24675209  0.57759449    -0.23300
C3079       C  0.49456164  0.22949112  0.58886223     0.13000
C3080       C  0.49404304  0.22951243  0.61057998    -0.12500
N3081       N  0.47186057  0.28176280  0.62152120     0.64700
H3082       H  0.47323362  0.27733891  0.58117333     0.12500
N3083       N  0.50347308  0.21196341  0.57879554     0.61300
H3084       H  0.50023751  0.21629983  0.61890754     0.08700
O3085       O  0.52976218  0.28643763  0.67848176    -0.40100
O3086       O  0.54325320  0.25694052  0.68765662    -0.39300
O3087       O  0.45750694  0.20561857  0.64823031    -0.39300
O3088       O  0.44110698  0.23507565  0.64554552    -0.37000
O3089       O  0.52301334  0.21109546  0.57704416    -0.37900
O3090       O  0.49307182  0.19540642  0.57792786    -0.34100
O3091       O  0.48395139  0.29691452  0.62436377    -0.35500
O3092       O  0.45277382  0.28358447  0.62569056    -0.39800
C3093       C  0.49898141  0.23546729  0.10370287    -0.13500
C3094       C  0.50547309  0.25369447  0.11357788     0.16900
C3095       C  0.51314439  0.27009847  0.10155215     0.03200
C3096       C  0.51412379  0.26813030  0.07999628    -0.12000
C3097       C  0.50771682  0.24983947  0.06981453    -0.03000
C3098       C  0.50015596  0.23329963  0.08211610     0.02400
C3099       C  0.50563780  0.25479758  0.13650932     0.09300
N3100       N  0.51981733  0.28898047  0.11105875     0.65600
H3101       H  0.51994706  0.28118814  0.07123695     0.18500
N3102       N  0.49451581  0.21382386  0.07322622     0.76100
H3103       H  0.49345999  0.22256236  0.11290142     0.10100
C3104       C  0.48708596  0.25574414  0.14803364     0.03800
C3105       C  0.48792593  0.25658194  0.16969753    -0.05000
C3106       C  0.50706402  0.25612010  0.18030513    -0.23300
C3107       C  0.52563693  0.25484555  0.16864199     0.13000
C3108       C  0.52474553  0.25432683  0.14698372    -0.12500
N3109       N  0.46730167  0.25611962  0.13792209     0.64700
H3110       H  0.47345077  0.25739748  0.17827299     0.12500
N3111       N  0.54557044  0.25465718  0.17846512     0.61300
H3112       H  0.53912182  0.25343548  0.13824171     0.08700
O3113       O  0.47564283  0.21012588  0.06922725    -0.40100
O3114       O  0.50727575  0.19899496  0.07411095    -0.39300
O3115       O  0.53899085  0.29236367  0.11364035    -0.39300
O3116       O  0.50693436  0.30348406  0.11377449    -0.37000
O3117       O  0.55503400  0.23769465  0.18080903    -0.37900
O3118       O  0.55524098  0.27146674  0.18115442    -0.34100
O3119       O  0.45626419  0.23995568  0.13746695    -0.35500
O3120       O  0.45941505  0.27323617  0.13274029    -0.39800
C3121       C  0.34094442  0.02174460  0.94699399    -0.13500
C3122       C  0.32232328  0.02852740  0.95615173     0.16900
C3123       C  0.31773998  0.04996107  0.95608153     0.03200
C3124       C  0.33132919  0.06391191  0.94655188    -0.12000
C3125       C  0.34932782  0.05701158  0.93642670    -0.03000
C3126       C  0.35432503  0.03570520  0.93704777     0.02400
C3127       C  0.30815812  0.01335982  0.96635683     0.09300
N3128       N  0.29869972  0.05769857  0.96451349     0.65600
H3129       H  0.32705220  0.08017462  0.94598189     0.18500
N3130       N  0.37320482  0.02811526  0.92817210     0.76100
H3131       H  0.34520347  0.00548811  0.94763121     0.10100
C3132       C  0.30114499  0.99517757  0.95621582     0.03800
C3133       C  0.28713452  0.98182524  0.96617062    -0.05000
C3134       C  0.27945163  0.98654616  0.98591997    -0.23300
C3135       C  0.28700668  0.00429438  0.99629201     0.13000
C3136       C  0.30142639  0.01724976  0.98663120    -0.12500
N3137       N  0.30705623  0.99072939  0.93537539     0.64700
H3138       H  0.28133247  0.96831914  0.95793607     0.12500
N3139       N  0.28032550  0.00925403  0.01678671     0.61300
H3140       H  0.30728406  0.03061735  0.99503828     0.08700
O3141       O  0.37263901  0.01821695  0.91132183    -0.40100
O3142       O  0.38962474  0.02794161  0.93891046    -0.39300
O3143       O  0.29913836  0.06957409  0.98005220    -0.39300
O3144       O  0.28196972  0.05552381  0.95448600    -0.37000
O3145       O  0.28933121  0.00109185  0.03207830    -0.37900
O3146       O  0.26762954  0.02389541  0.01966202    -0.34100
O3147       O  0.31833851  0.97518879  0.93153348    -0.35500
O3148       O  0.29828656  0.00016545  0.92069223    -0.39800
C3149       C  0.32313099  0.19431327  0.93973238    -0.13500
C3150       C  0.30696711  0.20203869  0.92746771     0.16900
C3151       C  0.30470956  0.19474828  0.90702964     0.03200
C3152       C  0.31828014  0.17943532  0.89942433    -0.12000
C3153       C  0.33413025  0.17112513  0.91196651    -0.03000
C3154       C  0.33670832  0.17912971  0.93222881     0.02400
C3155       C  0.29219336  0.21679723  0.93711329     0.09300
N3156       N  0.28873659  0.20270414  0.89388235     0.65600
H3157       H  0.31607239  0.17368249  0.88378809     0.18500
N3158       N  0.35331048  0.17236250  0.94529748     0.76100
H3159       H  0.32510083  0.20001215  0.95543159     0.10100
C3160       C  0.27411788  0.20948430  0.94688507     0.03800
C3161       C  0.26285702  0.22255390  0.96006151    -0.05000
C3162       C  0.26921512  0.24309885  0.96383090    -0.23300
C3163       C  0.28651411  0.25086169  0.95271503     0.13000
C3164       C  0.29792548  0.23760876  0.93968399    -0.12500
N3165       N  0.26783044  0.18835995  0.94468999     0.64700
H3166       H  0.24942736  0.21625438  0.96798976     0.12500
N3167       N  0.29352120  0.27170194  0.95537356     0.61300
H3168       H  0.31190940  0.24334292  0.93227876     0.08700
O3169       O  0.34937031  0.16098547  0.96062345    -0.40100
O3170       O  0.37093419  0.18086628  0.94389231    -0.39300
O3171       O  0.29299597  0.21706568  0.88140446    -0.39300
O3172       O  0.27198273  0.19273068  0.89171751    -0.37000
O3173       O  0.30766316  0.27564252  0.96837099    -0.37900
O3174       O  0.28865325  0.28516456  0.94211805    -0.34100
O3175       O  0.27491716  0.17491201  0.95693864    -0.35500
O3176       O  0.25264595  0.18386939  0.93311398    -0.39800
C3177       C  0.44000708  0.16097850  0.97387846    -0.13500
C3178       C  0.45763929  0.17066586  0.96573842     0.16900
C3179       C  0.46398764  0.16585174  0.94546336     0.03200
C3180       C  0.45205830  0.15231417  0.93332814    -0.12000
C3181       C  0.43370966  0.14326106  0.94100614    -0.03000
C3182       C  0.42807640  0.14731707  0.96183499     0.02400
C3183       C  0.46859010  0.18650312  0.97829061     0.09300
N3184       N  0.48250781  0.17461936  0.93697367     0.65600
H3185       H  0.45696588  0.14939214  0.91755018     0.18500
N3186       N  0.41012355  0.13807151  0.97096787     0.76100
H3187       H  0.43517399  0.16444596  0.98958060     0.10100
C3188       C  0.46665250  0.20771461  0.97370790     0.03800
C3189       C  0.47746225  0.22236036  0.98557102    -0.05000
C3190       C  0.48981631  0.21637293  0.00249747    -0.23300
C3191       C  0.49147820  0.19508179  0.00727042     0.13000
C3192       C  0.48081533  0.18038571  0.99516183    -0.12500
N3193       N  0.45282218  0.21465974  0.95782020     0.64700
H3194       H  0.47559339  0.23864878  0.98192878     0.12500
N3195       N  0.50464433  0.18800686  0.02362557     0.61300
H3196       H  0.48238229  0.16404677  0.99869838     0.08700
O3197       O  0.39399076  0.14884902  0.97380388    -0.40100
O3198       O  0.41180861  0.12078888  0.97986643    -0.39300
O3199       O  0.49981252  0.16613154  0.94062937    -0.39300
O3200       O  0.48114218  0.18766866  0.92255541    -0.37000
O3201       O  0.52411378  0.19000192  0.02201822    -0.37900
O3202       O  0.49736423  0.17597011  0.03713507    -0.34100
O3203       O  0.43345837  0.21463804  0.96106373    -0.35500
O3204       O  0.45994140  0.22430547  0.94244560    -0.39800
C3205       C  0.28646209  0.04889260  0.77554370    -0.13500
C3206       C  0.28094380  0.05321713  0.79607345     0.16900
C3207       C  0.26096930  0.04739047  0.80308916     0.03200
C3208       C  0.24758763  0.03620941  0.78998167    -0.12000
C3209       C  0.25387380  0.03052748  0.76998866    -0.03000
C3210       C  0.27324343  0.03758994  0.76255945     0.02400
C3211       C  0.29654625  0.06322795  0.80989087     0.09300
N3212       N  0.25456487  0.05155538  0.82383105     0.65600
H3213       H  0.23273023  0.03088125  0.79591201     0.18500
N3214       N  0.27958200  0.03361401  0.74174449     0.76100
H3215       H  0.30133793  0.05413541  0.76958802     0.10100
C3216       C  0.31662476  0.05463801  0.81225772     0.03800
C3217       C  0.33128253  0.06447517  0.82485719    -0.05000
C3218       C  0.32654141  0.08292923  0.83534596    -0.23300
C3219       C  0.30656122  0.09170680  0.83288595     0.13000
C3220       C  0.29178835  0.08184081  0.82018440    -0.12500
N3221       N  0.32227397  0.03564969  0.80229545     0.64700
H3222       H  0.34657027  0.05749111  0.82651435     0.12500
N3223       N  0.30074564  0.11005757  0.84384623     0.61300
H3224       H  0.27653737  0.08881558  0.81829345     0.08700
O3225       O  0.29458225  0.02148814  0.73824534    -0.40100
O3226       O  0.27273064  0.04489483  0.72736554    -0.39300
O3227       O  0.24110429  0.06538229  0.82723220    -0.39300
O3228       O  0.25923884  0.03898054  0.83799064    -0.37000
O3229       O  0.30071077  0.12725114  0.83463129    -0.37900
O3230       O  0.29226508  0.10857706  0.86135968    -0.34100
O3231       O  0.33512948  0.03591909  0.78756900    -0.35500
O3232       O  0.31779860  0.01863915  0.81073962    -0.39800
C3233       C  0.44711790  0.03118438  0.83251768    -0.13500
C3234       C  0.46777493  0.03092531  0.83963115     0.16900
C3235       C  0.47332631  0.04402169  0.85632319     0.03200
C3236       C  0.45852278  0.05754675  0.86488988    -0.12000
C3237       C  0.43795020  0.05791753  0.85755210    -0.03000
C3238       C  0.43223029  0.04428731  0.84135272     0.02400
C3239       C  0.48359414  0.01917349  0.82745895     0.09300
N3240       N  0.49382133  0.04349550  0.86494246     0.65600
H3241       H  0.46308303  0.06763701  0.87760286     0.18500
N3242       N  0.41175725  0.04463828  0.83263908     0.76100
H3243       H  0.44265841  0.02187738  0.81918735     0.10100
C3244       C  0.47986441  0.99863666  0.82072062     0.03800
C3245       C  0.49242010  0.98982166  0.80535637    -0.05000
C3246       C  0.50926441  0.00074077  0.79700653    -0.23300
C3247       C  0.51393003  0.02066570  0.80473295     0.13000
C3248       C  0.50097886  0.02975701  0.81961919    -0.12500
N3249       N  0.46335231  0.98658953  0.82931849     0.64700
H3250       H  0.48896933  0.97424287  0.79988401     0.12500
N3251       N  0.53061080  0.03257235  0.79630352     0.61300
H3252       H  0.50382737  0.04576183  0.82407843     0.08700
O3253       O  0.39981246  0.02932647  0.83508238    -0.40100
O3254       O  0.40697018  0.05850419  0.81977247    -0.39300
O3255       O  0.50522135  0.05938991  0.86411442    -0.39300
O3256       O  0.49906609  0.02858875  0.87639453    -0.37000
O3257       O  0.52780099  0.04268788  0.77987349    -0.37900
O3258       O  0.54686500  0.03558366  0.80687604    -0.34100
O3259       O  0.44899698  0.97986388  0.81775597    -0.35500
O3260       O  0.46509990  0.97965142  0.84745351    -0.39800
C3261       C  0.47156651  0.19530371  0.78753904    -0.13500
C3262       C  0.45028796  0.19320013  0.78317650     0.16900
C3263       C  0.44235920  0.20224247  0.76486566     0.03200
C3264       C  0.45582839  0.21294423  0.75142099    -0.12000
C3265       C  0.47700844  0.21567493  0.75625982    -0.03000
C3266       C  0.48482494  0.20645831  0.77452680     0.02400
C3267       C  0.43694511  0.18204544  0.79848976     0.09300
N3268       N  0.42051090  0.20220902  0.76055438     0.65600
H3269       H  0.44938906  0.22028448  0.73776211     0.18500
N3270       N  0.50627394  0.20816444  0.78015906     0.76100
H3271       H  0.47799048  0.18831742  0.80139652     0.10100
C3272       C  0.42485287  0.16447214  0.79317200     0.03800
C3273       C  0.41350981  0.15399803  0.80855993    -0.05000
C3274       C  0.41481393  0.16002799  0.82940197    -0.23300
C3275       C  0.42689810  0.17746577  0.83468694     0.13000
C3276       C  0.43752958  0.18843220  0.81929608    -0.12500
N3277       N  0.42543339  0.15594374  0.77272731     0.64700
H3278       H  0.40473187  0.14023960  0.80441623     0.12500
N3279       N  0.42851350  0.18421841  0.85568840     0.61300
H3280       H  0.44671230  0.20183980  0.82371106     0.08700
O3281       O  0.51924347  0.19544334  0.77283502    -0.40100
O3282       O  0.51138383  0.21933792  0.79539660    -0.39300
O3283       O  0.40832023  0.21202545  0.77231890    -0.39300
O3284       O  0.41400414  0.19595944  0.74319386    -0.37000
O3285       O  0.44447516  0.17969155  0.86613594    -0.37900
O3286       O  0.41576182  0.19736942  0.86262381    -0.34100
O3287       O  0.44227261  0.14861126  0.76584267    -0.35500
O3288       O  0.40865018  0.15217608  0.76326183    -0.39800
C3289       C  0.67734555  0.28295290  0.93079464    -0.13500
C3290       C  0.69716602  0.28817274  0.93811530     0.16900
C3291       C  0.70664663  0.30658026  0.93137548     0.03200
C3292       C  0.69566374  0.32008535  0.91846362    -0.12000
C3293       C  0.67532065  0.31543534  0.91172312    -0.03000
C3294       C  0.66643429  0.29623652  0.91757200     0.02400
C3295       C  0.70725763  0.27461830  0.95349828     0.09300
N3296       N  0.72752619  0.31157054  0.93723994     0.65600
H3297       H  0.70312090  0.33440535  0.91385568     0.18500
N3298       N  0.64616379  0.29015425  0.91077628     0.76100
H3299       H  0.67009709  0.26863749  0.93575689     0.10100
C3300       C  0.70769954  0.28008303  0.97454584     0.03800
C3301       C  0.71702638  0.26680712  0.98883375    -0.05000
C3302       C  0.72588121  0.24780320  0.98269631    -0.23300
C3303       C  0.72512381  0.24225915  0.96149206     0.13000
C3304       C  0.71574325  0.25567669  0.94719244    -0.12500
N3305       N  0.69782261  0.29858203  0.98176200     0.64700
H3306       H  0.71690977  0.27130314  0.00502272     0.12500
N3307       N  0.73431619  0.22355449  0.95397510     0.61300
H3308       H  0.71534301  0.25142777  0.93093735     0.08700
O3309       O  0.63077179  0.29273435  0.92259404    -0.40100
O3310       O  0.64436201  0.27856392  0.89512229    -0.39300
O3311       O  0.74246951  0.30366641  0.92733850    -0.39300
O3312       O  0.73091408  0.32675904  0.94911024    -0.37000
O3313       O  0.72370487  0.21166496  0.94255244    -0.37900
O3314       O  0.75384912  0.22154157  0.95446628    -0.34100
O3315       O  0.67878662  0.29811677  0.98650112    -0.35500
O3316       O  0.70880400  0.31378607  0.98742977    -0.39800
C3317       C  0.55004783  0.31030071  0.99554698    -0.13500
C3318       C  0.53988885  0.31510987  0.97689331     0.16900
C3319       C  0.52086477  0.30513477  0.97227098     0.03200
C3320       C  0.51336331  0.28954574  0.98522993    -0.12000
C3321       C  0.52407180  0.28390003  0.00327977    -0.03000
C3322       C  0.54219218  0.29499857  0.00884725     0.02400
C3323       C  0.55114384  0.32701837  0.96065757     0.09300
N3324       N  0.50923513  0.31037647  0.95415121     0.65600
H3325       H  0.49905470  0.28161573  0.98099149     0.18500
N3326       N  0.55375927  0.28969707  0.02695518     0.76100
H3327       H  0.56490709  0.31746565  0.99918158     0.10100
C3328       C  0.55950842  0.34698556  0.96398622     0.03800
C3329       C  0.57167461  0.35643650  0.94855962    -0.05000
C3330       C  0.57587616  0.34623994  0.92974623    -0.23300
C3331       C  0.56693538  0.32642975  0.92638570     0.13000
C3332       C  0.55494409  0.31713416  0.94174666    -0.12500
N3333       N  0.55571921  0.35786516  0.98286720     0.64700
H3334       H  0.57828100  0.37163210  0.95155414     0.12500
N3335       N  0.56946828  0.31550602  0.90731344     0.61300
H3336       H  0.54897008  0.30162458  0.93899637     0.08700
O3337       O  0.55217904  0.30075080  0.04300417    -0.40100
O3338       O  0.56787308  0.27614539  0.02588463    -0.39300
O3339       O  0.50637453  0.29695854  0.94018893    -0.39300
O3340       O  0.49881041  0.32693719  0.95385225    -0.37000
O3341       O  0.58430401  0.30282037  0.90546363    -0.37900
O3342       O  0.55411435  0.31412585  0.89519824    -0.34100
O3343       O  0.57021379  0.35990028  0.99591117    -0.35500
O3344       O  0.53942832  0.36862351  0.98470103    -0.39800
C3345       C  0.72407670  0.45132740  0.78760383    -0.13500
C3346       C  0.73503504  0.43394207  0.79443590     0.16900
C3347       C  0.75644630  0.43229732  0.79023168     0.03200
C3348       C  0.76655786  0.44819971  0.77943917    -0.12000
C3349       C  0.75563763  0.46584023  0.77259389    -0.03000
C3350       C  0.73403186  0.46720530  0.77685411     0.02400
C3351       C  0.72353831  0.41837390  0.80660924     0.09300
N3352       N  0.76794461  0.41437504  0.79631671     0.65600
H3353       H  0.78303449  0.44651821  0.77615188     0.18500
N3354       N  0.72195018  0.48480460  0.77093527     0.76100
H3355       H  0.70758009  0.45275991  0.79099818     0.10100
C3356       C  0.72406216  0.41883510  0.82836031     0.03800
C3357       C  0.70938838  0.40752200  0.83961799    -0.05000
C3358       C  0.69385261  0.39588573  0.82954304    -0.23300
C3359       C  0.69443970  0.39414838  0.80778519     0.13000
C3360       C  0.70913367  0.40550821  0.79651583    -0.12500
N3361       N  0.73805728  0.43227816  0.83916359     0.64700
H3362       H  0.70925703  0.40910144  0.85632357     0.12500
N3363       N  0.68024014  0.38097426  0.79694494     0.61300
H3364       H  0.70875589  0.40496123  0.77975222     0.08700
O3365       O  0.70945764  0.48336946  0.75591662    -0.40100
O3366       O  0.72099621  0.50032223  0.78281626    -0.39300
O3367       O  0.76816412  0.39867779  0.78463661    -0.39300
O3368       O  0.78100667  0.41572037  0.81085304    -0.37000
O3369       O  0.66554718  0.38883121  0.78664650    -0.37900
O3370       O  0.68474321  0.36210978  0.79439994    -0.34100
O3371       O  0.73230412  0.45039565  0.84380167    -0.35500
O3372       O  0.75414608  0.42485293  0.84754470    -0.39800
C3373       C  0.56749663  0.45074302  0.81785042    -0.13500
C3374       C  0.54836450  0.45370364  0.82784653     0.16900
C3375       C  0.54520735  0.44454794  0.84733455     0.03200
C3376       C  0.56094525  0.43241681  0.85626016    -0.12000
C3377       C  0.57990642  0.42886688  0.84596648    -0.03000
C3378       C  0.58318007  0.43852604  0.82662342     0.02400
C3379       C  0.53147159  0.46464217  0.81652922     0.09300
N3380       N  0.52606295  0.44732111  0.85818424     0.65600
H3381       H  0.55798961  0.42519959  0.87109444     0.18500
N3382       N  0.60224645  0.43601826  0.81554503     0.76100
H3383       H  0.57006364  0.45744920  0.80269813     0.10100
C3384       C  0.53459369  0.48467981  0.80853478     0.03800
C3385       C  0.52083624  0.49260395  0.79374247    -0.05000
C3386       C  0.50356030  0.48110862  0.78691527    -0.23300
C3387       C  0.49955392  0.46166924  0.79603473     0.13000
C3388       C  0.51354493  0.45362017  0.81067330    -0.12500
N3389       N  0.55185241  0.49703378  0.81513315     0.64700
H3390       H  0.52386088  0.50781570  0.78730780     0.12500
N3391       N  0.48257782  0.44904521  0.78924900     0.61300
H3392       H  0.51116985  0.43799919  0.81634164     0.08700
O3393       O  0.61669594  0.44903048  0.81805141    -0.40100
O3394       O  0.60306169  0.42348416  0.80054825    -0.39300
O3395       O  0.51284018  0.43286936  0.85834303    -0.39300
O3396       O  0.52429563  0.46211980  0.87085391    -0.37000
O3397       O  0.48354954  0.44018394  0.77185330    -0.37900
O3398       O  0.46916438  0.44315625  0.80218396    -0.34100
O3399       O  0.56635969  0.50100463  0.80263692    -0.35500
O3400       O  0.55068092  0.50700363  0.83190829    -0.39800
C3401       C  0.55529554  0.29666567  0.75862905    -0.13500
C3402       C  0.56381864  0.28770118  0.77650195     0.16900
C3403       C  0.55824029  0.26714238  0.78144303     0.03200
C3404       C  0.54356266  0.25663149  0.76939742    -0.12000
C3405       C  0.53421008  0.26586315  0.75209726    -0.03000
C3406       C  0.54073362  0.28599091  0.74630257     0.02400
C3407       C  0.57604407  0.30066549  0.79133933     0.09300
N3408       N  0.56720063  0.25677616  0.79883211     0.65600
H3409       H  0.53945506  0.24087180  0.77369948     0.18500
N3410       N  0.53193109  0.29639463  0.72884727     0.76100
H3411       H  0.55893573  0.31266528  0.75486057     0.10100
C3412       C  0.59272586  0.31350668  0.78513381     0.03800
C3413       C  0.60301904  0.32597136  0.79977388    -0.05000
C3414       C  0.59716229  0.32581194  0.82067861    -0.23300
C3415       C  0.58017076  0.31340051  0.82671787     0.13000
C3416       C  0.56980367  0.30118424  0.81211544    -0.12500
N3417       N  0.59962528  0.31385258  0.76415459     0.64700
H3418       H  0.61594764  0.33557055  0.79480144     0.12500
N3419       N  0.57241959  0.31393677  0.84738837     0.61300
H3420       H  0.55623731  0.29246287  0.81702652     0.08700
O3421       O  0.54380381  0.30538171  0.71619631    -0.40100
O3422       O  0.51268980  0.30030682  0.72845558    -0.39300
O3423       O  0.55567990  0.25077377  0.81342072    -0.39300
O3424       O  0.58587524  0.25078365  0.79808784    -0.37000
O3425       O  0.56147542  0.32908971  0.85324050    -0.37900
O3426       O  0.57320482  0.29779429  0.85830361    -0.34100
O3427       O  0.59740906  0.33012554  0.75361558    -0.35500
O3428       O  0.61126235  0.29956220  0.75754072    -0.39800
C3429       C  0.10345073  0.48185859  0.25208663    -0.13500
C3430       C  0.11326409  0.50084097  0.25617587     0.16900
C3431       C  0.10104125  0.51809245  0.26171881     0.03200
C3432       C  0.07933123  0.51614618  0.26313452    -0.12000
C3433       C  0.06940223  0.49726534  0.25865485    -0.03000
C3434       C  0.08171653  0.47993793  0.25323530     0.02400
C3435       C  0.13628331  0.50226931  0.25472021     0.09300
N3436       N  0.11044017  0.53782682  0.26531232     0.65600
H3437       H  0.07011961  0.52966268  0.26717921     0.18500
N3438       N  0.07246354  0.46009047  0.24978194     0.76100
H3439       H  0.11276512  0.46840207  0.24807457     0.10100
C3440       C  0.14899910  0.49881392  0.27212387     0.03800
C3441       C  0.17072796  0.49893576  0.27008330    -0.05000
C3442       C  0.18017926  0.50265468  0.25086752    -0.23300
C3443       C  0.16743094  0.50610757  0.23339575     0.13000
C3444       C  0.14563642  0.50600961  0.23549920    -0.12500
N3445       N  0.14001538  0.49507687  0.29195548     0.64700
H3446       H  0.18027568  0.49639445  0.28367827     0.12500
N3447       N  0.17636426  0.50860590  0.21329209     0.61300
H3448       H  0.13593407  0.50829623  0.22197067     0.08700
O3449       O  0.06990514  0.44795645  0.26481883    -0.40100
O3450       O  0.07037079  0.45334189  0.23156302    -0.39300
O3451       O  0.11247975  0.55029706  0.25047667    -0.39300
O3452       O  0.11308693  0.54417921  0.28359788    -0.37000
O3453       O  0.18824241  0.49482631  0.20600809    -0.37900
O3454       O  0.17120642  0.52379644  0.20217830    -0.34100
O3455       O  0.13818317  0.47673973  0.29838307    -0.35500
O3456       O  0.13718211  0.50999992  0.30428315    -0.39800
C3457       C  0.75954853  0.60559038  0.02361240    -0.13500
C3458       C  0.75097797  0.61602293  0.00668063     0.16900
C3459       C  0.74177938  0.60432928  0.99064808     0.03200
C3460       C  0.74081628  0.58265661  0.99208424    -0.12000
C3461       C  0.74912153  0.57205716  0.00922535    -0.03000
C3462       C  0.75866571  0.58391154  0.02516142     0.02400
C3463       C  0.75237331  0.63904096  0.00579336     0.09300
N3464       N  0.73320521  0.61426959  0.97286018     0.65600
H3465       H  0.73366456  0.57405660  0.97949635     0.18500
N3466       N  0.76701479  0.57447973  0.04335195     0.76100
H3467       H  0.76694037  0.61443913  0.03589472     0.10100
C3468       C  0.74349188  0.65168278  0.02124033     0.03800
C3469       C  0.74544048  0.67327139  0.02014554    -0.05000
C3470       C  0.75643666  0.68294782  0.00399696    -0.23300
C3471       C  0.76603545  0.67005383  0.98895572     0.13000
C3472       C  0.76375823  0.64843797  0.98993736    -0.12500
N3473       N  0.73224743  0.64283334  0.03808357     0.64700
H3474       H  0.73819037  0.68247706  0.03220567     0.12500
N3475       N  0.77876170  0.67838768  0.97295282     0.61300
H3476       H  0.77133485  0.63884501  0.97836116     0.08700
O3477       O  0.75503778  0.56482399  0.05539013    -0.40100
O3478       O  0.78481172  0.57984953  0.04971959    -0.39300
O3479       O  0.74300050  0.61380545  0.95597323    -0.39300
O3480       O  0.71459522  0.62049806  0.97315057    -0.37000
O3481       O  0.79822111  0.67593276  0.97394561    -0.37900
O3482       O  0.77054643  0.68339576  0.95595285    -0.34100
O3483       O  0.74052095  0.64220837  0.05578603    -0.35500
O3484       O  0.71298464  0.63950202  0.03622588    -0.39800
C3485       C  0.66070432  0.46520639  0.94327538    -0.13500
C3486       C  0.68189815  0.46338816  0.94818102     0.16900
C3487       C  0.69271259  0.44544511  0.94213603     0.03200
C3488       C  0.68237995  0.42971342  0.93130514    -0.12000
C3489       C  0.66108647  0.43127363  0.92624684    -0.03000
C3490       C  0.65021067  0.44935412  0.93247242     0.02400
C3491       C  0.69224796  0.47921997  0.96132403     0.09300
N3492       N  0.71426549  0.44294705  0.94703523     0.65600
H3493       H  0.69124711  0.41612548  0.92684758     0.18500
N3494       N  0.62858962  0.45193659  0.92799952     0.76100
H3495       H  0.65217172  0.47885812  0.94818337     0.10100
C3496       C  0.70108802  0.49735096  0.95298778     0.03800
C3497       C  0.71243257  0.51092570  0.96581906    -0.05000
C3498       C  0.71534260  0.50648811  0.98687637    -0.23300
C3499       C  0.70558158  0.48882104  0.99530122     0.13000
C3500       C  0.69424804  0.47538099  0.98251722    -0.12500
N3501       N  0.69974088  0.50147136  0.93134473     0.64700
H3502       H  0.72009759  0.52423864  0.95903015     0.12500
N3503       N  0.70709039  0.48434070  0.01688082     0.61300
H3504       H  0.68727424  0.46159439  0.98911243     0.08700
O3505       O  0.62305973  0.46330976  0.91314349    -0.40100
O3506       O  0.61520688  0.44598282  0.94093570    -0.39300
O3507       O  0.71958088  0.43118072  0.96165979    -0.39300
O3508       O  0.72790345  0.44963933  0.93474233    -0.37000
O3509       O  0.69516721  0.49346960  0.02943170    -0.37900
O3510       O  0.71760417  0.46897710  0.02288516    -0.34100
O3511       O  0.68744891  0.51524868  0.92486706    -0.35500
O3512       O  0.71301452  0.49375156  0.91920287    -0.39800
C3513       C  0.92138175  0.32531729  0.03404852    -0.13500
C3514       C  0.94070664  0.31663941  0.03891268     0.16900
C3515       C  0.95021416  0.32152209  0.05793250     0.03200
C3516       C  0.93964623  0.33380606  0.07236339    -0.12000
C3517       C  0.91973344  0.34182650  0.06806018    -0.03000
C3518       C  0.91091669  0.33797943  0.04826469     0.02400
C3519       C  0.95037664  0.30183737  0.02434290     0.09300
N3520       N  0.97076016  0.31441337  0.06261920     0.65600
H3521       H  0.94708420  0.33689688  0.08711655     0.18500
N3522       N  0.89123896  0.34643583  0.04236509     0.76100
H3523       H  0.91416452  0.32188064  0.01925223     0.10100
C3524       C  0.95067595  0.28049184  0.02859339     0.03800
C3525       C  0.96098025  0.26694491  0.01517447    -0.05000
C3526       C  0.97082402  0.27418017  0.99716640    -0.23300
C3527       C  0.96982800  0.29559155  0.99256506     0.13000
C3528       C  0.95954421  0.30914128  0.00616703    -0.12500
N3529       N  0.93991217  0.27229477  0.04608127     0.64700
H3530       H  0.96101422  0.25053659  0.01877947     0.12500
N3531       N  0.97995543  0.30406400  0.97482872     0.61300
H3532       H  0.95926540  0.32561121  0.00286483     0.08700
O3533       O  0.87502950  0.33552807  0.04399125    -0.40100
O3534       O  0.89068056  0.36282034  0.03179439    -0.39300
O3535       O  0.98619949  0.32349803  0.05472965    -0.39300
O3536       O  0.97359048  0.30202428  0.07740566    -0.37000
O3537       O  0.97011169  0.31628895  0.96317638    -0.37900
O3538       O  0.99948991  0.30279794  0.97323679    -0.34100
O3539       O  0.92059258  0.26896479  0.04486193    -0.35500
O3540       O  0.95010709  0.26482322  0.06098788    -0.39800
C3541       C  0.94764434  0.26569782  0.22105211    -0.13500
C3542       C  0.94005648  0.28471343  0.22829387     0.16900
C3543       C  0.94408893  0.29059336  0.24893953     0.03200
C3544       C  0.95667610  0.27800244  0.26149509    -0.12000
C3545       C  0.96559969  0.25967777  0.25368203    -0.03000
C3546       C  0.96032985  0.25324609  0.23339716     0.02400
C3547       C  0.92902260  0.29845171  0.21351745     0.09300
N3548       N  0.93671903  0.30992162  0.25688782     0.65600
H3549       H  0.96048704  0.28325597  0.27700738     0.18500
N3550       N  0.96778236  0.23412377  0.22500993     0.76100
H3551       H  0.94405837  0.26067422  0.20540267     0.10100
C3552       C  0.93896259  0.30472697  0.19519811     0.03800
C3553       C  0.92811393  0.31626101  0.18052470    -0.05000
C3554       C  0.90730221  0.32223820  0.18366093    -0.23300
C3555       C  0.89732789  0.31609441  0.20218388     0.13000
C3556       C  0.90823181  0.30423803  0.21686418    -0.12500
N3557       N  0.96037845  0.29996909  0.19154070     0.64700
H3558       H  0.93633429  0.32081412  0.16662809     0.12500
N3559       N  0.87633354  0.32195508  0.20650018     0.61300
H3560       H  0.90035623  0.29934140  0.23084608     0.08700
O3561       O  0.98142099  0.23431188  0.21099448    -0.40100
O3562       O  0.95818229  0.21753538  0.22886628    -0.39300
O3563       O  0.92283626  0.31014842  0.27065735    -0.39300
O3564       O  0.94608730  0.32647033  0.25235777    -0.37000
O3565       O  0.86171151  0.30941734  0.20281115    -0.37900
O3566       O  0.87273119  0.33823826  0.21673631    -0.34100
O3567       O  0.96521701  0.28715718  0.17757352    -0.35500
O3568       O  0.97434856  0.31102512  0.19974792    -0.39800
C3569       C  0.96764468  0.42227914  0.17994347    -0.13500
C3570       C  0.96437859  0.44355801  0.18249648     0.16900
C3571       C  0.94791495  0.45319247  0.17184659     0.03200
C3572       C  0.93423791  0.44123106  0.15982968    -0.12000
C3573       C  0.93682301  0.41966554  0.15799645    -0.03000
C3574       C  0.95421472  0.41029892  0.16772673     0.02400
C3575       C  0.97707246  0.45488474  0.19792627     0.09300
N3576       N  0.94441347  0.47495943  0.17376779     0.65600
H3577       H  0.92118205  0.44880837  0.15235282     0.18500
N3578       N  0.95776896  0.38847131  0.16652046     0.76100
H3579       H  0.98032585  0.41477500  0.18811473     0.10100
C3580       C  0.97230443  0.45340812  0.21909015     0.03800
C3581       C  0.98482805  0.46342348  0.23370891    -0.05000
C3582       C  0.00243968  0.47477500  0.22769961    -0.23300
C3583       C  0.00722967  0.47627758  0.20644761     0.13000
C3584       C  0.99448490  0.46638039  0.19173198    -0.12500
N3585       N  0.95478662  0.44165776  0.22593186     0.64700
H3586       H  0.98084342  0.46213024  0.24995192     0.12500
N3587       N  0.02433841  0.48854149  0.19953864     0.61300
H3588       H  0.99820768  0.46761783  0.17542922     0.08700
O3589       O  0.95176551  0.37694051  0.18105149    -0.40100
O3590       O  0.97026842  0.38142934  0.15321423    -0.39300
O3591       O  0.95090040  0.48695896  0.15983723    -0.39300
O3592       O  0.93160688  0.48160353  0.18698316    -0.37000
O3593       O  0.02141862  0.50726903  0.19481774    -0.37900
O3594       O  0.04129362  0.47988204  0.19483949    -0.34100
O3595       O  0.95712150  0.42289525  0.23082373    -0.35500
O3596       O  0.93793909  0.45076342  0.23015699    -0.39800
C3597       C  0.80054212  0.28828681  0.10578755    -0.13500
C3598       C  0.79883423  0.28712517  0.08422510     0.16900
C3599       C  0.80866630  0.30207332  0.07193077     0.03200
C3600       C  0.82049443  0.31763824  0.08121124    -0.12000
C3601       C  0.82265754  0.31890447  0.10285780    -0.03000
C3602       C  0.81224119  0.30409939  0.11522185     0.02400
C3603       C  0.78598343  0.27096613  0.07437872     0.09300
N3604       N  0.80646207  0.30179594  0.04992863     0.65600
H3605       H  0.82810236  0.32875300  0.07122387     0.18500
N3606       N  0.81297130  0.30510476  0.13727818     0.76100
H3607       H  0.79258455  0.27700333  0.11531585     0.10100
C3608       C  0.79498523  0.25264970  0.06661680     0.03800
C3609       C  0.78326155  0.23950486  0.05385810    -0.05000
C3610       C  0.76267313  0.24451812  0.04860779    -0.23300
C3611       C  0.75326185  0.26208919  0.05768229     0.13000
C3612       C  0.76502389  0.27523106  0.07035624    -0.12500
N3613       N  0.81632716  0.24788288  0.07061962     0.64700
H3614       H  0.79070782  0.22606638  0.04696521     0.12500
N3615       N  0.73181746  0.26678122  0.05408455     0.61300
H3616       H  0.75797883  0.28923397  0.07651169     0.08700
O3617       O  0.82479951  0.29303916  0.14713326    -0.40100
O3618       O  0.79957087  0.31565369  0.14691373    -0.39300
O3619       O  0.79247759  0.31261003  0.04150515    -0.39300
O3620       O  0.82052260  0.29377854  0.03891282    -0.37000
O3621       O  0.71799995  0.25686399  0.06373155    -0.37900
O3622       O  0.72692016  0.28315529  0.04465261    -0.34100
O3623       O  0.82097554  0.23615789  0.08549299    -0.35500
O3624       O  0.83002456  0.25248433  0.05746182    -0.39800
C3625       C  0.81870512  0.46146694  0.08313389    -0.13500
C3626       C  0.81973108  0.46138691  0.06149575     0.16900
C3627       C  0.83299993  0.44716515  0.05144721     0.03200
C3628       C  0.84421602  0.43269775  0.06312140    -0.12000
C3629       C  0.84289621  0.43249527  0.08478427    -0.03000
C3630       C  0.83009332  0.44719037  0.09482654     0.02400
C3631       C  0.80573609  0.47536936  0.04982225     0.09300
N3632       N  0.83567939  0.44763123  0.02950812     0.65600
H3633       H  0.85418885  0.42167361  0.05522001     0.18500
N3634       N  0.82718296  0.44675866  0.11672857     0.76100
H3635       H  0.80834106  0.47217794  0.09096578     0.10100
C3636       C  0.78918319  0.46751440  0.03787450     0.03800
C3637       C  0.77563452  0.48117844  0.02788845    -0.05000
C3638       C  0.77764608  0.50287516  0.02991337    -0.23300
C3639       C  0.79439165  0.51061298  0.04198279     0.13000
C3640       C  0.80815488  0.49683961  0.05173583    -0.12500
N3641       N  0.78502014  0.44574957  0.03690545     0.64700
H3642       H  0.76294942  0.47449769  0.01899847     0.12500
N3643       N  0.79751364  0.53227009  0.04508029     0.61300
H3644       H  0.82079138  0.50298885  0.06109796     0.08700
O3645       O  0.83526827  0.46068491  0.12787833    -0.40100
O3646       O  0.81368038  0.43484663  0.12437155    -0.39300
O3647       O  0.84605752  0.46212172  0.02150290    -0.39300
O3648       O  0.83146268  0.43176526  0.01883985    -0.37000
O3649       O  0.79574396  0.53961994  0.06309835    -0.37900
O3650       O  0.80731559  0.54244585  0.03161824    -0.34100
O3651       O  0.77816535  0.43662057  0.05271482    -0.35500
O3652       O  0.78409678  0.43675480  0.01956900    -0.39800
C3653       C  0.79299888  0.40412423  0.20421610    -0.13500
C3654       C  0.79148204  0.42573149  0.20310965     0.16900
C3655       C  0.80600668  0.43689689  0.19138866     0.03200
C3656       C  0.82167448  0.42640530  0.18076937    -0.12000
C3657       C  0.82332304  0.40467068  0.18154288    -0.03000
C3658       C  0.80882127  0.39350306  0.19364204     0.02400
C3659       C  0.77582396  0.43687058  0.21550171     0.09300
N3660       N  0.80491408  0.45896968  0.19006076     0.65600
H3661       H  0.83240898  0.43546741  0.17155121     0.18500
N3662       N  0.81023582  0.37153416  0.19583041     0.76100
H3663       H  0.78207429  0.39551291  0.21365063     0.10100
C3664       C  0.75542839  0.44007202  0.20818934     0.03800
C3665       C  0.74190598  0.45314424  0.21914926    -0.05000
C3666       C  0.74859304  0.46317275  0.23728032    -0.23300
C3667       C  0.76859982  0.45870800  0.24526177     0.13000
C3668       C  0.78205344  0.44580078  0.23423013    -0.12500
N3669       N  0.74874916  0.43115371  0.18905725     0.64700
H3670       H  0.72662183  0.45646141  0.21277550     0.12500
N3671       N  0.77543780  0.46717358  0.26457875     0.61300
H3672       H  0.79766745  0.44306565  0.24009300     0.08700
O3673       O  0.79760463  0.35995997  0.18629107    -0.40100
O3674       O  0.82185619  0.36395875  0.20962191    -0.39300
O3675       O  0.81745011  0.46996423  0.20037871    -0.39300
O3676       O  0.79388982  0.46724971  0.17619891    -0.37000
O3677       O  0.76933431  0.45909737  0.28123764    -0.37900
O3678       O  0.79005766  0.48022588  0.26498276    -0.34100
O3679       O  0.73743761  0.41517967  0.18910678    -0.35500
O3680       O  0.75183276  0.44070300  0.17235358    -0.39800
C3681       C  0.95273133  0.69645299  0.25269810    -0.13500
C3682       C  0.94615515  0.70745800  0.27028951     0.16900
C3683       C  0.95459113  0.72723210  0.27423719     0.03200
C3684       C  0.97013197  0.73506953  0.26141729    -0.12000
C3685       C  0.97739959  0.72375285  0.24432761    -0.03000
C3686       C  0.96823637  0.70440631  0.23966491     0.02400
C3687       C  0.93291344  0.69707309  0.28592074     0.09300
N3688       N  0.94765324  0.73942029  0.29139315     0.65600
H3689       H  0.97670849  0.75019007  0.26497078     0.18500
N3690       N  0.97566847  0.69188537  0.22294991     0.76100
H3691       H  0.94680157  0.68094250  0.24981221     0.10100
C3692       C  0.91347954  0.68823683  0.28084457     0.03800
C3693       C  0.90210511  0.67767738  0.29597118    -0.05000
C3694       C  0.90972899  0.67582979  0.31622929    -0.23300
C3695       C  0.92932051  0.68436817  0.32121579     0.13000
C3696       C  0.94065729  0.69486268  0.30610809    -0.12500
N3697       N  0.90499657  0.69010150  0.26050785     0.64700
H3698       H  0.88714329  0.67095487  0.29187945     0.12500
N3699       N  0.93864914  0.68102141  0.34101804     0.61300
H3700       H  0.95602493  0.70074266  0.31001071     0.08700
O3701       O  0.96292734  0.68467179  0.20990709    -0.40100
O3702       O  0.99398048  0.68482801  0.22350464    -0.39300
O3703       O  0.95996581  0.74331992  0.30613126    -0.39300
O3704       O  0.93053252  0.74892686  0.29025588    -0.37000
O3705       O  0.94901847  0.66472571  0.34417173    -0.37900
O3706       O  0.93954783  0.69567688  0.35394871    -0.34100
O3707       O  0.90501152  0.67460497  0.24855820    -0.35500
O3708       O  0.89405932  0.70569337  0.25604071    -0.39800
C3709       C  0.93428281  0.65379469  0.46621477    -0.13500
C3710       C  0.94644458  0.67137841  0.46198993     0.16900
C3711       C  0.94652357  0.67940817  0.44172983     0.03200
C3712       C  0.93445341  0.67011430  0.42634144    -0.12000
C3713       C  0.92196185  0.65278074  0.43048164    -0.03000
C3714       C  0.92214286  0.64439637  0.45065273     0.02400
C3715       C  0.95955838  0.68106145  0.47837892     0.09300
N3716       N  0.95830827  0.69747424  0.43664959     0.65600
H3717       H  0.93466532  0.67681201  0.41096699     0.18500
N3718       N  0.90965456  0.62684197  0.45575486     0.76100
H3719       H  0.93430830  0.64724665  0.48164816     0.10100
C3720       C  0.95099334  0.68889971  0.49693053     0.03800
C3721       C  0.96350658  0.70044707  0.51059141    -0.05000
C3722       C  0.98436313  0.70467946  0.50581105    -0.23300
C3723       C  0.99320972  0.69566387  0.48798968     0.13000
C3724       C  0.98088517  0.68377117  0.47466092    -0.12500
N3725       N  0.92930239  0.68676994  0.50124426     0.64700
H3726       H  0.95647745  0.70743422  0.52418489     0.12500
N3727       N  0.01464696  0.69880918  0.48304016     0.61300
H3728       H  0.98788416  0.67721382  0.46084183     0.08700
O3729       O  0.89278938  0.62940541  0.46539398    -0.40100
O3730       O  0.91719961  0.60887165  0.45404478    -0.39300
O3731       O  0.97373852  0.69593723  0.42469714    -0.39300
O3732       O  0.95124559  0.71516579  0.44112008    -0.37000
O3733       O  0.02825896  0.68694247  0.49060501    -0.37900
O3734       O  0.01953982  0.71097260  0.46861205    -0.34100
O3735       O  0.92343309  0.67498164  0.51561801    -0.35500
O3736       O  0.91644913  0.69908066  0.49309808    -0.39800
C3737       C  0.99561425  0.54282840  0.31661978    -0.13500
C3738       C  0.97452543  0.53733885  0.31794638     0.16900
C3739       C  0.96735187  0.51983170  0.30707051     0.03200
C3740       C  0.98098962  0.50877444  0.29432729    -0.12000
C3741       C  0.00186851  0.51494023  0.29180646    -0.03000
C3742       C  0.00935898  0.53171673  0.30384436     0.02400
C3743       C  0.95963977  0.55157647  0.32817118     0.09300
N3744       N  0.94585789  0.51411429  0.30743059     0.65600
H3745       H  0.97481490  0.49578228  0.28558002     0.18500
N3746       N  0.03047820  0.53845507  0.30243549     0.76100
H3747       H  0.00124757  0.55634440  0.32492841     0.10100
C3748       C  0.94977612  0.54672884  0.34699490     0.03800
C3749       C  0.93454908  0.56009451  0.35506893    -0.05000
C3750       C  0.92884930  0.57826210  0.34457073    -0.23300
C3751       C  0.93914611  0.58322404  0.32590255     0.13000
C3752       C  0.95431871  0.56989568  0.31793755    -0.12500
N3753       N  0.95521171  0.52844842  0.35815328     0.64700
H3754       H  0.92692312  0.55606728  0.36945822     0.12500
N3755       N  0.93474313  0.60199037  0.31506153     0.61300
H3756       H  0.96186108  0.57375904  0.30344986     0.08700
O3757       O  0.04363906  0.53216054  0.31548799    -0.40100
O3758       O  0.03514466  0.55316580  0.29051807    -0.39300
O3759       O  0.93318452  0.52320204  0.29560747    -0.39300
O3760       O  0.94047119  0.49749135  0.31611636    -0.37000
O3761       O  0.94451560  0.61832311  0.31968752    -0.37900
O3762       O  0.92381589  0.60145463  0.29883241    -0.34100
O3763       O  0.97089148  0.52870359  0.36992891    -0.35500
O3764       O  0.94220499  0.51388635  0.35962721    -0.39800
C3765       C  0.80392577  0.55175072  0.41974673    -0.13500
C3766       C  0.81421116  0.54160423  0.43588583     0.16900
C3767       C  0.83498208  0.54672644  0.44046536     0.03200
C3768       C  0.84504918  0.56221859  0.42913932    -0.12000
C3769       C  0.83467086  0.57281473  0.41319027    -0.03000
C3770       C  0.81393994  0.56712377  0.40827813     0.02400
C3771       C  0.80241975  0.52658405  0.44839900     0.09300
N3772       N  0.84594178  0.53643228  0.45667628     0.65600
H3773       H  0.86097451  0.56620900  0.43311690     0.18500
N3774       N  0.80304739  0.57627081  0.39130304     0.76100
H3775       H  0.78793207  0.54771048  0.41606394     0.10100
C3776       C  0.79078183  0.53340591  0.46541485     0.03800
C3777       C  0.77731393  0.51975331  0.47534485    -0.05000
C3778       C  0.77450485  0.49922623  0.46831513    -0.23300
C3779       C  0.78698954  0.49215383  0.45165498     0.13000
C3780       C  0.80089345  0.50589257  0.44199721    -0.12500
N3781       N  0.79157712  0.55454832  0.47200708     0.64700
H3782       H  0.76850586  0.52563112  0.48839787     0.12500
N3783       N  0.78503900  0.47165451  0.44347666     0.61300
H3784       H  0.80977531  0.50067073  0.42870051     0.08700
O3785       O  0.78855013  0.58900859  0.39473259    -0.40100
O3786       O  0.80533422  0.56890319  0.37334925    -0.39300
O3787       O  0.85750871  0.52121930  0.45240886    -0.39300
O3788       O  0.84700471  0.54468596  0.47435818    -0.37000
O3789       O  0.76858870  0.46658196  0.43403854    -0.37900
O3790       O  0.80117216  0.46071681  0.44124168    -0.34100
O3791       O  0.77864153  0.56736865  0.46482818    -0.35500
O3792       O  0.80267709  0.55955895  0.48734116    -0.39800
C3793       C  0.82090768  0.71804582  0.42372178    -0.13500
C3794       C  0.79936499  0.71775928  0.42042011     0.16900
C3795       C  0.79089231  0.70394684  0.40573979     0.03200
C3796       C  0.80392564  0.68988131  0.39549110    -0.12000
C3797       C  0.82545841  0.68957792  0.39935387    -0.03000
C3798       C  0.83399038  0.70412548  0.41339034     0.02400
C3799       C  0.78604003  0.73071869  0.43387704     0.09300
N3800       N  0.76918281  0.70425062  0.40088099     0.65600
H3801       H  0.79715570  0.67909262  0.38448266     0.18500
N3802       N  0.85561435  0.70387838  0.41861165     0.76100
H3803       H  0.82749844  0.72851874  0.43513751     0.10100
C3804       C  0.77451989  0.72183631  0.45001491     0.03800
C3805       C  0.76354513  0.73457510  0.46370338    -0.05000
C3806       C  0.76406736  0.75639514  0.46215402    -0.23300
C3807       C  0.77542564  0.76517113  0.44554295     0.13000
C3808       C  0.78629612  0.75226025  0.43173740    -0.12500
N3809       N  0.77519528  0.70001052  0.45372882     0.64700
H3810       H  0.75538625  0.72712287  0.47631411     0.12500
N3811       N  0.77623652  0.78700654  0.44225893     0.61300
H3812       H  0.79520286  0.75913168  0.41927038     0.08700
O3813       O  0.86214610  0.69147283  0.43219472    -0.40100
O3814       O  0.86729053  0.71830975  0.41247710    -0.39300
O3815       O  0.76243879  0.71725606  0.38797850    -0.39300
O3816       O  0.75788820  0.68907290  0.40582160    -0.37000
O3817       O  0.79370620  0.79557965  0.43973975    -0.37900
O3818       O  0.75997178  0.79636987  0.43657231    -0.34100
O3819       O  0.79114680  0.69218022  0.46201806    -0.35500
O3820       O  0.75871002  0.68945067  0.45248840    -0.39800
C3821       C  0.78329363  0.59469288  0.30396395    -0.13500
C3822       C  0.78891600  0.57450443  0.29811088     0.16900
C3823       C  0.80947538  0.56768946  0.30155476     0.03200
C3824       C  0.82391481  0.58091896  0.31089026    -0.12000
C3825       C  0.81820568  0.60086497  0.31738735    -0.03000
C3826       C  0.79776265  0.60792541  0.31352444     0.02400
C3827       C  0.77365790  0.56090756  0.28750123     0.09300
N3828       N  0.81554625  0.54690681  0.29680474     0.65600
H3829       H  0.83939895  0.57504967  0.31420813     0.18500
N3830       N  0.79178299  0.62869893  0.31842421     0.76100
H3831       H  0.76768666  0.60030188  0.30079246     0.10100
C3832       C  0.75482403  0.55496899  0.29695981     0.03800
C3833       C  0.74159525  0.54083075  0.28697034    -0.05000
C3834       C  0.74708061  0.53217488  0.26781604    -0.23300
C3835       C  0.76537625  0.53902576  0.25789021     0.13000
C3836       C  0.77840207  0.55330620  0.26775022    -0.12500
N3837       N  0.74979826  0.56182627  0.31737249     0.64700
H3838       H  0.72770361  0.53552647  0.29488692     0.12500
N3839       N  0.77087492  0.53166323  0.23775008     0.61300
H3840       H  0.79254466  0.55827657  0.26004955     0.08700
O3841       O  0.77729660  0.63196269  0.33117121    -0.40100
O3842       O  0.79830714  0.64340126  0.30737953    -0.39300
O3843       O  0.82851135  0.54353609  0.28255695    -0.39300
O3844       O  0.81066351  0.53244061  0.30893694    -0.37000
O3845       O  0.76242026  0.53959268  0.22203023    -0.37900
O3846       O  0.78654688  0.52008744  0.23553189    -0.34100
O3847       O  0.73497670  0.57436326  0.32006745    -0.35500
O3848       O  0.75776626  0.55280789  0.33275215    -0.39800
C3849       C  0.54831465  0.56862353  0.68808491    -0.13500
C3850       C  0.54057271  0.55100335  0.67811007     0.16900
C3851       C  0.54698000  0.54657507  0.65774889     0.03200
C3852       C  0.56162947  0.55945275  0.64800073    -0.12000
C3853       C  0.57002633  0.57678553  0.65831627    -0.03000
C3854       C  0.56274319  0.58153571  0.67843398     0.02400
C3855       C  0.52665010  0.53723442  0.69002242     0.09300
N3856       N  0.53863190  0.52921224  0.64679080     0.65600
H3857       H  0.56675259  0.55563233  0.63247389     0.18500
N3858       N  0.56960477  0.59960446  0.68926158     0.76100
H3859       H  0.54324064  0.57228582  0.70368203     0.10100
C3860       C  0.53486209  0.52041882  0.70115458     0.03800
C3861       C  0.52268874  0.51044880  0.71604181    -0.05000
C3862       C  0.50222748  0.51695547  0.72021684    -0.23300
C3863       C  0.49369829  0.53326857  0.70829378     0.13000
C3864       C  0.50597310  0.54323266  0.69340712    -0.12500
N3865       N  0.55602799  0.51420837  0.69847759     0.64700
H3866       H  0.52954438  0.49785716  0.72477318     0.12500
N3867       N  0.47323242  0.54101898  0.71214070     0.61300
H3868       H  0.49968502  0.55647161  0.68521864     0.08700
O3869       O  0.58185750  0.59768474  0.70440259    -0.40100
O3870       O  0.56020082  0.61654587  0.68654807    -0.39300
O3871       O  0.52228881  0.53141713  0.63617384    -0.39300
O3872       O  0.54950877  0.51309577  0.64453113    -0.37000
O3873       O  0.47045965  0.55433933  0.72619763    -0.37900
O3874       O  0.45887898  0.53748294  0.69925779    -0.34100
O3875       O  0.56991782  0.52162170  0.71017098    -0.35500
O3876       O  0.56019275  0.49877250  0.68720658    -0.39800
C3877       C  0.70244815  0.69628380  0.57206034    -0.13500
C3878       C  0.69269711  0.71544741  0.56904818     0.16900
C3879       C  0.67331351  0.71916963  0.57842191     0.03200
C3880       C  0.66378595  0.70360492  0.59017991    -0.12000
C3881       C  0.67311127  0.68398484  0.59273297    -0.03000
C3882       C  0.69293793  0.68060506  0.58370399     0.02400
C3883       C  0.70183963  0.73029602  0.55412544     0.09300
N3884       N  0.66260953  0.73829805  0.57522513     0.65600
H3885       H  0.64861400  0.70677938  0.59678577     0.18500
N3886       N  0.70334611  0.66113216  0.58543181     0.76100
H3887       H  0.71729598  0.69321348  0.56469618     0.10100
C3888       C  0.71439537  0.74704614  0.56050879     0.03800
C3889       C  0.72349915  0.76008246  0.54568159    -0.05000
C3890       C  0.72080091  0.75629998  0.52441793    -0.23300
C3891       C  0.70791026  0.73965367  0.51814407     0.13000
C3892       C  0.69851535  0.72696428  0.53296772    -0.12500
N3893       N  0.71909030  0.75017191  0.58188678     0.64700
H3894       H  0.73362767  0.77253668  0.55081505     0.12500
N3895       N  0.70409706  0.73548528  0.49675056     0.61300
H3896       H  0.68879016  0.71415822  0.52790984     0.08700
O3897       O  0.71806949  0.65914017  0.59821100    -0.40100
O3898       O  0.70062484  0.64748893  0.57166521    -0.39300
O3899       O  0.64790898  0.73912725  0.56228640    -0.39300
O3900       O  0.66522799  0.75305957  0.58779879    -0.37000
O3901       O  0.71325257  0.72054138  0.48802682    -0.37900
O3902       O  0.68898252  0.74414005  0.48777717    -0.34100
O3903       O  0.73414512  0.74056439  0.58994925    -0.35500
O3904       O  0.71076464  0.76498874  0.59158347    -0.39800
C3905       C  0.65539569  0.54114242  0.55017543    -0.13500
C3906       C  0.67604018  0.53550353  0.55452076     0.16900
C3907       C  0.68638912  0.54495533  0.57126193     0.03200
C3908       C  0.67632509  0.56026490  0.58290846    -0.12000
C3909       C  0.65587311  0.56653377  0.57825755    -0.03000
C3910       C  0.64521080  0.55645444  0.56192447     0.02400
C3911       C  0.68763266  0.52218044  0.53979097     0.09300
N3912       N  0.70753227  0.53991348  0.57594187     0.65600
H3913       H  0.68477586  0.56756170  0.59552546     0.18500
N3914       N  0.62465826  0.56258785  0.55611669     0.76100
H3915       H  0.64743794  0.53421127  0.53705169     0.10100
C3916       C  0.69083762  0.50088161  0.54319257     0.03800
C3917       C  0.70320696  0.48933759  0.52943924    -0.05000
C3918       C  0.71266272  0.49873664  0.51224482    -0.23300
C3919       C  0.70881104  0.52007780  0.50864458     0.13000
C3920       C  0.69649874  0.53147339  0.52241906    -0.12500
N3921       N  0.68186398  0.49086002  0.56068257     0.64700
H3922       H  0.70592249  0.47307059  0.53262982     0.12500
N3923       N  0.71709288  0.53048277  0.49099844     0.61300
H3924       H  0.69399374  0.54786207  0.51963254     0.08700
O3925       O  0.60941836  0.55104323  0.56035802    -0.40100
O3926       O  0.62217364  0.57755413  0.54385868    -0.39300
O3927       O  0.72197316  0.55120516  0.56910129    -0.39300
O3928       O  0.71146056  0.52694723  0.58996712    -0.37000
O3929       O  0.70783217  0.52898755  0.47383471    -0.37900
O3930       O  0.73087617  0.54421092  0.49343785    -0.34100
O3931       O  0.66417114  0.48253618  0.55902400    -0.35500
O3932       O  0.69306021  0.48688710  0.57621863    -0.39800
C3933       C  0.72010941  0.58093590  0.67892364    -0.13500
C3934       C  0.71373790  0.57179466  0.69747550     0.16900
C3935       C  0.69380716  0.57646031  0.70534129     0.03200
C3936       C  0.68002946  0.58852172  0.69366921    -0.12000
C3937       C  0.68587799  0.59681088  0.67444830    -0.03000
C3938       C  0.70657025  0.59357738  0.66753898     0.02400
C3939       C  0.72747822  0.55634805  0.70765460     0.09300
N3940       N  0.68748617  0.56934770  0.72531234     0.65600
H3941       H  0.66454402  0.59125972  0.69971730     0.18500
N3942       N  0.71410120  0.60275549  0.64892639     0.76100
H3943       H  0.73555670  0.57780757  0.67294386     0.10100
C3944       C  0.72069359  0.53582797  0.71096237     0.03800
C3945       C  0.73350976  0.52195574  0.72162064    -0.05000
C3946       C  0.75356922  0.52762565  0.72824507    -0.23300
C3947       C  0.76079096  0.54783394  0.72383183     0.13000
C3948       C  0.74762839  0.56203383  0.71387689    -0.12500
N3949       N  0.70135891  0.52851091  0.70258086     0.64700
H3950       H  0.72795739  0.50629038  0.72404248     0.12500
N3951       N  0.78124839  0.55434109  0.72960024     0.61300
H3952       H  0.75314668  0.57765122  0.71106386     0.08700
O3953       O  0.72201102  0.62064078  0.64956203    -0.40100
O3954       O  0.71633743  0.59174492  0.63292358    -0.39300
O3955       O  0.69728165  0.57534487  0.74117419    -0.39300
O3956       O  0.67027492  0.56017335  0.72742363    -0.37000
O3957       O  0.79583203  0.55304092  0.71662104    -0.37900
O3958       O  0.78384059  0.56487454  0.74587179    -0.34100
O3959       O  0.69800759  0.52978337  0.68338796    -0.35500
O3960       O  0.68928618  0.51779281  0.71359486    -0.39800
C3961       C  0.55105997  0.64991013  0.54096261    -0.13500
C3962       C  0.55416693  0.67089807  0.53638116     0.16900
C3963       C  0.56901672  0.68227945  0.54762671     0.03200
C3964       C  0.58016237  0.67281408  0.56354209    -0.12000
C3965       C  0.57688302  0.65190010  0.56869068    -0.03000
C3966       C  0.56234513  0.64028558  0.55692221     0.02400
C3967       C  0.54024624  0.68170118  0.52175745     0.09300
N3968       N  0.57233204  0.70377400  0.54355008     0.65600
H3969       H  0.59142638  0.68206985  0.57200819     0.18500
N3970       N  0.55815898  0.61906315  0.56152332     0.76100
H3971       H  0.53939265  0.64114043  0.53251856     0.10100
C3972       C  0.54607567  0.68553581  0.50116802     0.03800
C3973       C  0.53397051  0.69879317  0.48892055    -0.05000
C3974       C  0.51602816  0.70842633  0.49692014    -0.23300
C3975       C  0.50958515  0.70337500  0.51718890     0.13000
C3976       C  0.52180048  0.69027381  0.52940355    -0.12500
N3977       N  0.56452443  0.67654067  0.49271615     0.64700
H3978       H  0.53919250  0.70224062  0.47336379     0.12500
N3979       N  0.49056789  0.71118004  0.52554626     0.61300
H3980       H  0.51710124  0.68713979  0.54520234     0.08700
O3981       O  0.56514312  0.60500981  0.54983469    -0.40100
O3982       O  0.54479066  0.61459889  0.57506032    -0.39300
O3983       O  0.56281113  0.71723520  0.55409365    -0.39300
O3984       O  0.58714886  0.70924039  0.53202171    -0.37000
O3985       O  0.47360785  0.70262798  0.52058972    -0.37900
O3986       O  0.49106105  0.72354735  0.54069595    -0.34100
O3987       O  0.56315036  0.66040322  0.48173488    -0.35500
O3988       O  0.58128874  0.68671498  0.49285049    -0.39800
C3989       C  0.57966447  0.68299278  0.71589274    -0.13500
C3990       C  0.57221823  0.70221656  0.70926841     0.16900
C3991       C  0.57796271  0.70938354  0.68947567     0.03200
C3992       C  0.58958245  0.69654490  0.67623056    -0.12000
C3993       C  0.59645247  0.67682029  0.68251314    -0.03000
C3994       C  0.59193271  0.67044395  0.70304355     0.02400
C3995       C  0.55719566  0.71354040  0.72273788     0.09300
N3996       N  0.57259146  0.72982595  0.68282386     0.65600
H3997       H  0.59327375  0.70213904  0.66088227     0.18500
N3998       N  0.59925415  0.65118946  0.71118608     0.76100
H3999       H  0.57559234  0.67746232  0.73117919     0.10100
C4000       C  0.53682315  0.71797028  0.71587916     0.03800
C4001       C  0.52272008  0.72763163  0.72926110    -0.05000
C4002       C  0.52793036  0.73235020  0.74990438    -0.23300
C4003       C  0.54826324  0.72756605  0.75686650     0.13000
C4004       C  0.56265576  0.71842367  0.74324869    -0.12500
N4005       N  0.52967510  0.71135899  0.69592599     0.64700
H4006       H  0.50711315  0.73063535  0.72354966     0.12500
N4007       N  0.55463480  0.73189866  0.77760614     0.61300
H4008       H  0.57819013  0.71484171  0.74882766     0.08700
O4009       O  0.58643888  0.63885237  0.71929900    -0.40100
O4010       O  0.61839684  0.64905471  0.71504322    -0.39300
O4011       O  0.58002760  0.74528173  0.69228866    -0.39300
O4012       O  0.56383259  0.73243067  0.66553947    -0.37000
O4013       O  0.55365550  0.71782059  0.79105622    -0.37900
O4014       O  0.56454658  0.74832148  0.78155184    -0.34100
O4015       O  0.52923170  0.69228004  0.69160638    -0.35500
O4016       O  0.52031479  0.72397913  0.68429652    -0.39800
loop_ 
_geom_bond_atom_site_label_1 
_geom_bond_atom_site_label_2 
_geom_bond_distance 
_geom_bond_site_symmetry_2 
_ccdc_geom_bond_type 
O1           C17   1.279       .  A
O1           Zn7   2.050       .  S
C2           O18   1.277       .  A
C2           O15   1.277       .  A
C2         C3881   1.500       .  S
O3           C16   1.277       .  A
O3          Cd10   2.089       .  S
O4           C22   1.276       .  A
O4          Cd13   2.068       .  S
O5           C19   1.278       .  A
O5           Cd9   2.075       .  S
O6           C17   1.273       .  A
O6           Cd9   2.070       .  S
Zn7          O18   2.032       .  S
Zn7          O20   2.009       .  S
Zn7          O12   1.938       .  S
O8           C19   1.275       .  A
O8          Cd13   2.073       .  S
Cd9          O11   2.063       .  S
Cd9          O12   1.990       .  S
Cd10         O14   2.101       .  S
Cd10         O23   2.100       .  S
Cd10         O12   2.022       .  S
O11          C21   1.275       .  A
O12         Cd13   1.998       .  S
Cd13         O15   2.088       .  S
O14          C21   1.279       .  A
C16          O20   1.276       .  A
C16        C3965   1.489       .  S
C17        C3993   1.499       .  S
C19        C3937   1.493       .  S
C21        C3853   1.489       .  S
C22          O23   1.279       .  A
C22        C3909   1.490       .  S
O24          C40   1.275       .  A
O24         Zn30   2.021       .  S
C25          O41   1.274       .  A
C25          O38   1.276       .  A
C25        C3694   1.475       .  S
O26          C39   1.277       .  A
O26         Cd33   2.090       .  S
O27          C45   1.274       .  A
O27         Cd36   2.052       .  S
O28          C42   1.275       .  A
O28         Cd32   2.065       .  S
O29          C40   1.273       .  A
O29         Cd32   2.068       .  S
Zn30         O41   2.010       .  S
Zn30         O43   2.002       .  S
Zn30         O35   1.928       .  S
O31          C42   1.276       .  A
O31         Cd36   2.077       .  S
Cd32         O34   2.065       .  S
Cd32         O35   1.990       .  S
Cd33         O37   2.077       .  S
Cd33         O46   2.099       .  S
Cd33         O35   2.010       .  S
O34          C44   1.275       .  A
O35         Cd36   1.981       .  S
Cd36         O38   2.071       .  S
O37          C44   1.278       .  A
C39          O43   1.272       .  A
C39        C3750   1.484       .  S
C40        C3825   1.477       .  S
C42        C3797   1.481       .  S
C44        C3769   1.484       .  S
C45          O46   1.277       .  A
C45        C3713   1.486       .  S
O47          C63   1.277       .  A
O47         Zn53   2.031       .  S
C48          O64   1.275       .  A
C48          O61   1.274       .  A
C48        C3629   1.479       .  S
O49          C62   1.275       .  A
O49         Cd56   2.077       .  S
O50          C68   1.274       .  A
O50         Cd59   2.048       .  S
O51          C65   1.277       .  A
O51         Cd55   2.076       .  S
O52          C63   1.274       .  A
O52         Cd55   2.066       .  S
Zn53         O64   2.027       .  S
Zn53         O66   1.998       .  S
Zn53         O58   1.932       .  S
O54          C65   1.273       .  A
O54         Cd59   2.066       .  S
Cd55         O57   2.056       .  S
Cd55         O58   1.983       .  S
Cd56         O60   2.089       .  S
Cd56         O69   2.085       .  S
Cd56         O58   2.013       .  S
O57          C67   1.275       .  A
O58         Cd59   1.985       .  S
Cd59         O61   2.061       .  S
O60          C67   1.277       .  A
C62          O66   1.274       .  A
C62        C3657   1.487       .  S
C63        C3573   1.487       .  S
C65        C3517   1.491       .  S
C67        C3554   1.491       .  S
C68          O69   1.277       .  A
C68        C3601   1.489       .  S
C70        C3461   1.497       .  S
C70          N71   1.368       .  A
C70          N75   1.367   1_554  A
N71          C72   1.364       .  A
C72        C3638   1.500       .  S
C72          N73   1.356       .  A
N73          C74   1.352   1_554  A
C74        C3498   1.483       .  S
C74          N75   1.360       .  A
C76        C3433   1.485       .  S
C76          N77   1.364       .  A
C76          N81   1.365       .  A
N77          C78   1.360       .  A
C78        C3582   1.482       .  S
C78          N79   1.354       .  A
N79          C80   1.356       .  A
C80        C3741   1.493       .  S
C80          N81   1.362       .  A
O82          C98   1.275       .  A
O82         Zn88   2.020       .  S
C83          O99   1.275       .  A
C83          O96   1.275       .  A
C83        C3293   1.490       .  S
O84          C97   1.280       .  A
O84         Cd91   2.113       .  S
O85         C103   1.274       .  A
O85         Cd94   2.058       .  S
O86         C100   1.277       .  A
O86         Cd90   2.090       .  S
O87          C98   1.275       .  A
O87         Cd90   2.074       .  S
Zn88         O99   2.030       .  S
Zn88        O101   1.998       .  S
Zn88         O93   1.938       .  S
O89         C100   1.274       .  A
O89         Cd94   2.063       .  S
Cd90         O92   2.075       .  S
Cd90         O93   2.003       .  S
Cd91         O95   2.087       .  S
Cd91        O104   2.106       .  S
Cd91         O93   2.018       .  S
O92         C102   1.277       .  A
O93         Cd94   1.984       .  S
Cd94         O96   2.059       .  S
O95         C102   1.279       .  A
C97         O101   1.271       .  A
C97        C3330   1.494       .  S
C98        C3414   1.482       .  S
C100       C3358   1.484       .  S
C102       C3377   1.490       .  S
C103        O104   1.279       .  A
C103       C3489   1.497       .  S
O105        C121   1.278       .  A
O105       Zn111   2.029       .  S
C106        O122   1.278       .  A
C106        O119   1.273       .  A
C106       C3237   1.484       .  S
O107        C120   1.278       .  A
O107       Cd114   2.098       .  S
O108        C126   1.274       .  A
O108       Cd117   2.052       .  S
O109        C123   1.278       .  A
O109       Cd113   2.088       .  S
O110        C121   1.275       .  A
O110       Cd113   2.069       .  S
Zn111       O122   2.050       .  S
Zn111       O124   2.037       .  S
Zn111       O116   1.948       .  S
O112        C123   1.274       .  A
O112       Cd117   2.072       .  S
Cd113       O115   2.069       .  S
Cd113       O116   1.999       .  S
Cd114       O118   2.094       .  S
Cd114       O127   2.092       .  S
Cd114       O116   2.018       .  S
O115        C125   1.275       .  A
O116       Cd117   1.992       .  S
Cd117       O119   2.058       .  S
O118        C125   1.278       .  A
C120        O124   1.277       .  A
C120       C3274   1.483       .  S
C121       C3181   1.492       .  S
C123       C3125   1.484       .  S
C125       C3153   1.490       .  S
C126        O127   1.277       .  A
C126       C3218   1.481       .  S
C128       C3097   1.501       .  S
C128        N129   1.365       .  A
C128        N133   1.366       .  A
N129        C130   1.358       .  A
C130       C3321   1.484       .  S
C130        N131   1.355       .  A
N131        C132   1.355       .  A
C132       C3190   1.485       .  S
C132        N133   1.363       .  A
C134       C3069   1.503       .  S
C134        N135   1.364       .  A
C134        N139   1.368       .  A
N135        C136   1.360       .  A
C136       C3405   1.489       .  S
C136        N137   1.357       .  A
N137        C138   1.355       .  A
C138       C3265   1.494       .  S
C138        N139   1.363       .  A
C140       C3013   1.494       .  S
C140        N141   1.361       .  A
C140        N145   1.366       .  A
N141        C142   1.354       .  A
C142       C3246   1.478   1_565  S
C142        N143   1.353       .  A
N143        C144   1.358       .  A
C144       C3050   1.490       .  S
C144        N145   1.365       .  A
C146       C2929   1.495   1_565  S
C146        N147   1.362   1_565  A
C146        N151   1.363       .  A
N147        C148   1.359       .  A
C148       C2985   1.472       .  S
C148        N149   1.354   1_545  A
N149        C150   1.355       .  A
C150       C2957   1.490       .  S
C150        N151   1.359       .  A
C152       C2882   1.501       .  S
C152        N153   1.367   1_556  A
C152        N157   1.365       .  A
N153        C154   1.363       .  A
C154       C2901   1.495       .  S
C154        N155   1.358   1_554  A
N155        C156   1.357       .  A
C156       C3162   1.494       .  S
C156        N157   1.358       .  A
C158       C2826   1.490       .  S
C158        N159   1.364   1_554  A
C158        N163   1.364       .  A
N159        C160   1.359       .  A
C160       C3134   1.480       .  S
C160        N161   1.354   1_556  A
N161        C162   1.354       .  A
C162       C2845   1.474       .  S
C162        N163   1.360       .  A
C164       C2733   1.498   1_545  S
C164        N165   1.368   1_545  A
C164        N169   1.366       .  A
N165        C166   1.362       .  A
C166       C2770   1.496       .  S
C166        N167   1.355   1_565  A
N167        C168   1.354       .  A
C168       C2789   1.483       .  S
C168        N169   1.360       .  A
C170       C2677   1.494       .  S
C170        N171   1.365       .  A
C170        N175   1.362   1_655  A
N171        C172   1.363       .  A
C172       C3526   1.486       .  S
C172        N173   1.356       .  A
N173        C174   1.353   1_655  A
C174       C2714   1.476       .  S
C174        N175   1.354       .  A
C176       C2621   1.501       .  S
C176        N177   1.365       .  A
C176        N181   1.369   1_655  A
N177        C178   1.358       .  A
C178       C3545   1.487       .  S
C178        N179   1.352       .  A
N179        C180   1.355   1_655  A
C180       C2649   1.485       .  S
C180        N181   1.363       .  A
O182        C198   1.276       .  A
O182       Zn188   2.029       .  S
C183        O199   1.276       .  A
C183        O196   1.275       .  A
C183       C2854   1.487       .  S
O184        C197   1.278       .  A
O184       Cd191   2.091       .  S
O185        C203   1.273       .  A
O185       Cd194   2.053       .  S
O186        C200   1.274       .  A
O186       Cd190   2.060       .  S
O187        C198   1.273       .  A
O187       Cd190   2.060       .  S
Zn188       O199   2.026       .  S
Zn188       O201   2.003       .  S
Zn188       O193   1.938       .  S
O189        C200   1.275       .  A
O189       Cd194   2.076       .  S
Cd190       O192   2.053       .  S
Cd190       O193   1.987       .  S
Cd191       O195   2.109       .  S
Cd191       O204   2.104       .  S
Cd191       O193   2.019       .  S
O192        C202   1.272       .  A
O193       Cd194   1.995       .  S
Cd194       O196   2.076       .  S
O195        C202   1.280       .  A
C197        O201   1.273       .  A
C197       C2798   1.489       .  S
C198       C2994   1.486       .  S
C200       C2705   1.479       .  S
C202       C2658   1.492       .  S
C203        O204   1.280       .  A
C203       C2910   1.485       .  S
O205        C221   1.276       .  A
O205       Zn211   2.040       .  S
C206        O222   1.273       .  A
C206        O219   1.277       .  A
C206       C3041   1.492       .  S
O207        C220   1.278       .  A
O207       Cd214   2.094       .  S
O208        C226   1.276       .  A
O208       Cd217   2.062       .  S
O209        C223   1.274       .  A
O209       Cd213   2.069       .  S
O210        C221   1.273       .  A
O210       Cd213   2.052       .  S
Zn211       O222   2.010       .  S
Zn211       O224   1.993       .  S
Zn211       O216   1.933       .  S
O212        C223   1.277       .  A
O212       Cd217   2.082       .  S
Cd213       O215   2.051       .  S
Cd213       O216   1.971       .  S
Cd214       O218   2.107       .  S
Cd214       O227   2.098       .  S
Cd214       O216   2.020       .  S
O215        C225   1.275       .  A
O216       Cd217   1.986       .  S
Cd217       O219   2.080       .  S
O218        C225   1.279       .  A
C220        O224   1.274       .  A
C220       C2565   1.491       .  S
C221       C2537   1.491       .  S
C223       C2518   1.495       .  S
C225       C2593   1.494       .  S
C226        O227   1.279       .  A
C226       C2481   1.492       .  S
O228        C244   1.277       .  A
O228       Zn234   2.033       .  S
C229        O245   1.276       .  A
C229        O242   1.274       .  A
C229       C2369   1.489       .  S
O230        C243   1.281       .  A
O230       Cd237   2.102       .  S
O231        C249   1.274       .  A
O231       Cd240   2.054       .  S
O232        C246   1.277       .  A
O232       Cd236   2.081       .  S
O233        C244   1.275       .  A
O233       Cd236   2.065       .  S
Zn234       O245   2.019       .  S
Zn234       O247   2.027       .  S
Zn234       O239   1.936       .  S
O235        C246   1.273       .  A
O235       Cd240   2.072       .  S
Cd236       O238   2.053       .  S
Cd236       O239   1.980       .  S
Cd237       O241   2.106       .  S
Cd237       O250   2.107       .  S
Cd237       O239   2.018       .  S
O238        C248   1.275       .  A
O239       Cd240   1.991       .  S
Cd240       O242   2.066       .  S
O241        C248   1.279       .  A
C243        O247   1.276       .  A
C243       C2761   1.501       .  S
C244       C2966   1.487       .  S
C246       C2397   1.483       .  S
C248       C2434   1.496       .  S
C249        O250   1.281       .  A
C249       C2453   1.484       .  S
C251       C2341   1.487       .  S
C251        N252   1.365       .  A
C251        N256   1.364   1_455  A
N252        C253   1.361       .  A
C253       C2406   1.483       .  S
C253        N254   1.354       .  A
N254        C255   1.354   1_455  A
C255       C3722   1.477       .  S
C255        N256   1.359       .  A
C257       C2322   1.493       .  S
C257        N258   1.358       .  A
C257        N262   1.362       .  A
N258        C259   1.357       .  A
C259       C2378   1.482   1_545  S
C259        N260   1.359       .  A
N260        C261   1.360       .  A
C261       C2509   1.486       .  S
C261        N262   1.360       .  A
C263       C2285   1.494       .  S
C263        N264   1.366       .  A
C263        N268   1.364       .  A
N264        C265   1.362       .  A
C265       C2462   1.495       .  S
C265        N266   1.357       .  A
N266        C267   1.355       .  A
C267       C2602   1.488       .  S
C267        N268   1.360       .  A
C269       C2266   1.497       .  S
C269        N270   1.364   1_455  A
C269        N274   1.365       .  A
N270        C271   1.360       .  A
C271       C3685   1.478       .  S
C271        N272   1.354   1_655  A
N272        C273   1.353       .  A
C273       C2425   1.488       .  S
C273        N274   1.359       .  A
C275       C2229   1.499       .  S
C275        N276   1.363       .  A
C275        N280   1.366   1_545  A
N276        C277   1.359       .  A
C277       C3209   1.479       .  S
C277        N278   1.354   1_545  A
N278        C279   1.354       .  A
C279       C2490   1.484       .  S
C279        N280   1.361       .  A
C281       C2210   1.499       .  S
C281        N282   1.368   1_554  A
C281        N286   1.362       .  A
N282        C283   1.365       .  A
C283       C3302   1.489       .  S
C283        N284   1.356   1_556  A
N284        C285   1.352       .  A
C285       C3610   1.474       .  S
C285        N286   1.355       .  A
C287       C2173   1.490       .  S
C287        N288   1.362       .  A
C287        N292   1.367       .  A
N288        C289   1.357       .  A
C289       C2574   1.476       .  S
C289        N290   1.354       .  A
N290        C291   1.356       .  A
C291       C4002   1.496       .  S
C291        N292   1.363       .  A
C293       C2145   1.492       .  S
C293        N294   1.361       .  A
C293        N298   1.361       .  A
N294        C295   1.358       .  A
C295       C3974   1.488       .  S
C295        N296   1.358       .  A
N296        C297   1.358       .  A
C297       C2546   1.474       .  S
C297        N298   1.359       .  A
C299       C2117   1.504       .  S
C299        N300   1.365       .  A
C299        N304   1.370       .  A
N300        C301   1.357       .  A
C301       C3890   1.487       .  S
C301        N302   1.352       .  A
N302        C303   1.358       .  A
C303       C3806   1.502       .  S
C303        N304   1.367       .  A
C305       C2089   1.493       .  S
C305        N306   1.365       .  A
C305        N310   1.362       .  A
N306        C307   1.363       .  A
C307       C3386   1.483       .  S
C307        N308   1.359       .  A
N308        C309   1.356       .  A
C309       C3862   1.489       .  S
C309        N310   1.355       .  A
C311       C2061   1.491       .  S
C311        N312   1.361       .  A
C311        N316   1.363       .  A
N312        C313   1.359       .  A
C313       C3349   1.492       .  S
C313        N314   1.355       .  A
N314        C315   1.357       .  A
C315       C3946   1.488       .  S
C315        N316   1.359       .  A
C317       C2033   1.504       .  S
C317        N318   1.367       .  A
C317        N322   1.369       .  A
N318        C319   1.360       .  A
C319       C3918   1.492       .  S
C319        N320   1.351       .  A
N320        C321   1.356       .  A
C321       C3778   1.495       .  S
C321        N322   1.364       .  A
C323       C2005   1.496       .  S
C323        N324   1.363       .  A
C323        N328   1.365       .  A
N324        C325   1.358       .  A
C325       C3834   1.476       .  S
C325        N326   1.351       .  A
N326        C327   1.353       .  A
C327       C3666   1.477       .  S
C327        N328   1.361       .  A
O329        C345   1.272       .  A
O329       Zn335   1.990       .  S
C330        O346   1.275       .  A
C330        O343   1.273       .  A
C330       C1921   1.485       .  S
O331        C344   1.274       .  A
O331       Cd338   2.081       .  S
O332        C350   1.274       .  A
O332       Cd341   2.048       .  S
O333        C347   1.275       .  A
O333       Cd337   2.084       .  S
O334        C345   1.277       .  A
O334       Cd337   2.074       .  S
Zn335       O346   2.022       .  S
Zn335       O348   2.005       .  S
Zn335       O340   1.921       .  S
O336        C347   1.275       .  A
O336       Cd341   2.059       .  S
Cd337       O339   2.069       .  S
Cd337       O340   1.988       .  S
Cd338       O342   2.086       .  S
Cd338       O351   2.083       .  S
Cd338       O340   2.005       .  S
O339        C349   1.278       .  A
O340       Cd341   1.972       .  S
Cd341       O343   2.055       .  S
O342        C349   1.278       .  A
C344        O348   1.274       .  A
C344       C1977   1.486       .  S
C345       C1865   1.472       .  S
C347       C1958   1.492       .  S
C349       C1902   1.492       .  S
C350        O351   1.277       .  A
C350       C1837   1.478       .  S
O352        C368   1.277       .  A
O352       Zn358   2.021       .  S
C353        O369   1.278       .  A
C353        O366   1.273       .  A
C353       C1809   1.491       .  S
O354        C367   1.278       .  A
O354       Cd361   2.087       .  S
O355        C373   1.275       .  A
O355       Cd364   2.059       .  S
O356        C370   1.273       .  A
O356       Cd360   2.069       .  S
O357        C368   1.276       .  A
O357       Cd360   2.076       .  S
Zn358       O369   2.054       .  S
Zn358       O371   2.021       .  S
Zn358       O363   1.945       .  S
O359        C370   1.274       .  A
O359       Cd364   2.060       .  S
Cd360       O362   2.073       .  S
Cd360       O363   2.000       .  S
Cd361       O365   2.080       .  S
Cd361       O374   2.098       .  S
Cd361       O363   2.012       .  S
O362        C372   1.276       .  A
O363       Cd364   1.976       .  S
Cd364       O366   2.047       .  S
O365        C372   1.277       .  A
C367        O371   1.275       .  A
C367       C1725   1.487       .  S
C368       C1781   1.483       .  S
C370       C1678   1.489       .  S
C372       C1753   1.483       .  S
C373        O374   1.277       .  A
C373       C1697   1.497       .  S
C375       C3078   1.506       .  S
C375        N376   1.372       .  A
C375        N380   1.366       .  A
N376        C377   1.369       .  A
C377       C1790   1.500       .  S
C377        N378   1.356       .  A
N378        C379   1.350       .  A
C379       C1641   1.480       .  S
C379        N380   1.357       .  A
O381        C397   1.275       .  A
O381       Zn387   2.027       .  S
C382        O398   1.276       .  A
C382        O395   1.273       .  A
C382       C1585   1.489       .  S
O383        C396   1.279       .  A
O383       Cd390   2.108       .  S
O384        C402   1.276       .  A
O384       Cd393   2.072       .  S
O385        C399   1.274       .  A
O385       Cd389   2.076       .  S
O386        C397   1.277       .  A
O386       Cd389   2.080       .  S
Zn387       O398   2.035       .  S
Zn387       O400   1.997       .  S
Zn387       O392   1.935       .  S
O388        C399   1.277       .  A
O388       Cd393   2.073       .  S
Cd389       O391   2.067       .  S
Cd389       O392   1.991       .  S
Cd390       O394   2.102       .  S
Cd390       O403   2.103       .  S
Cd390       O392   2.021       .  S
O391        C401   1.277       .  A
O392       Cd393   1.987       .  S
Cd393       O395   2.051       .  S
O394        C401   1.280       .  A
C396        O400   1.274       .  A
C396       C1538   1.492       .  S
C397       C1613   1.495       .  S
C399       C1557   1.493       .  S
C401       C1650   1.492       .  S
C402        O403   1.281       .  A
C402       C1510   1.494       .  S
C404       C2014   1.492       .  S
C404        N405   1.363       .  A
C404        N409   1.361       .  A
N405        C406   1.360       .  A
C406       C1529   1.486       .  S
C406        N407   1.357       .  A
N407        C408   1.357       .  A
C408       C1473   1.487       .  S
C408        N409   1.360       .  A
C410       C2182   1.502       .  S
C410        N411   1.364       .  A
C410        N415   1.370       .  A
N411        C412   1.358       .  A
C412       C1445   1.482       .  S
C412        N413   1.354       .  A
N413        C414   1.355       .  A
C414       C1426   1.491       .  S
C414        N415   1.364       .  A
O416        C432   1.276       .  A
O416       Zn422   2.024       .  S
C417        O433   1.277       .  A
C417        O430   1.273       .  A
C417       C1482   1.491       .  S
O418        C431   1.279       .  A
O418       Cd425   2.103       .  S
O419        C437   1.272       .  A
O419       Cd428   2.040       .  S
O420        C434   1.275       .  A
O420       Cd424   2.070       .  S
O421        C432   1.274       .  A
O421       Cd424   2.067       .  S
Zn422       O433   2.026       .  S
Zn422       O435   2.008       .  S
Zn422       O427   1.923       .  S
O423        C434   1.275       .  A
O423       Cd428   2.069       .  S
Cd424       O426   2.061       .  S
Cd424       O427   1.982       .  S
Cd425       O429   2.099       .  S
Cd425       O438   2.113       .  S
Cd425       O427   2.017       .  S
O426        C436   1.275       .  A
O427       Cd428   1.982       .  S
Cd428       O430   2.060       .  S
O429        C436   1.280       .  A
C431        O435   1.275       .  A
C431       C1314   1.491       .  S
C432       C1342   1.484       .  S
C434       C1454   1.488       .  S
C436       C1361   1.476       .  S
C437        O438   1.280       .  A
C437       C1398   1.481       .  S
C439       C2294   1.501       .  S
C439        N440   1.362       .  A
C439        N444   1.367       .  A
N440        C441   1.358       .  A
C441       C1846   1.473       .  S
C441        N442   1.356       .  A
N442        C443   1.356       .  A
C443       C1501   1.492       .  S
C443        N444   1.363       .  A
O445        C461   1.278       .  A
O445       Zn451   2.037       .  S
C446        O462   1.278       .  A
C446        O459   1.276       .  A
C446       C1417   1.500       .  S
O447        C460   1.277       .  A
O447       Cd454   2.091       .  S
O448        C466   1.275       .  A
O448       Cd457   2.059       .  S
O449        C463   1.275       .  A
O449       Cd453   2.079       .  S
O450        C461   1.275       .  A
O450       Cd453   2.079       .  S
Zn451       O462   2.054       .  S
Zn451       O464   2.018       .  S
Zn451       O456   1.944       .  S
O452        C463   1.277       .  A
O452       Cd457   2.078       .  S
Cd453       O455   2.052       .  S
Cd453       O456   1.996       .  S
Cd454       O458   2.100       .  S
Cd454       O467   2.101       .  S
Cd454       O456   2.029       .  S
O455        C465   1.275       .  A
O456       Cd457   1.987       .  S
Cd457       O459   2.069       .  S
O458        C465   1.278       .  A
C460        O464   1.276       .  A
C460       C1258   1.493       .  S
C461       C1165   1.497       .  S
C463       C1221   1.496       .  S
C465       C1193   1.492       .  S
C466        O467   1.278       .  A
C466       C1286   1.493       .  S
C468       C3470   1.502       .  S
C468        N469   1.367   1_554  A
C468        N473   1.366       .  A
N469        C470   1.363       .  A
C470       C1137   1.485       .  S
C470        N471   1.355   1_556  A
N471        C472   1.354       .  A
C472       C1277   1.489       .  S
C472        N473   1.359       .  A
O474        C490   1.273       .  A
O474       Zn480   2.026       .  S
C475        O491   1.275       .  A
C475        O488   1.275       .  A
C475       C1109   1.488       .  S
O476        C489   1.279       .  A
O476       Cd483   2.103       .  S
O477        C495   1.275       .  A
O477       Cd486   2.060       .  S
O478        C492   1.276       .  A
O478       Cd482   2.067       .  S
O479        C490   1.276       .  A
O479       Cd482   2.080       .  S
Zn480       O491   2.023       .  S
Zn480       O493   2.000       .  S
Zn480       O485   1.937       .  S
O481        C492   1.275       .  A
O481       Cd486   2.075       .  S
Cd482       O484   2.065       .  S
Cd482       O485   1.990       .  S
Cd483       O487   2.095       .  S
Cd483       O496   2.101       .  S
Cd483       O485   2.023       .  S
O484        C494   1.276       .  A
O485       Cd486   1.990       .  S
Cd486       O488   2.066       .  S
O487        C494   1.278       .  A
C489        O493   1.275       .  A
C489       C1025   1.487       .  S
C490        C969   1.495       .  S
C492       C1053   1.491       .  S
C494       C1006   1.479       .  S
C495        O496   1.278       .  A
C495       C1090   1.493       .  S
C497       C3022   1.497   1_545  S
C497        N498   1.368       .  A
C497        N502   1.362   1_545  A
N498        C499   1.365       .  A
C499       C1118   1.492       .  S
C499        N500   1.356       .  A
N500        C501   1.351   1_545  A
C501        C950   1.479       .  S
C501        N502   1.354       .  A
O503        C519   1.277       .  A
O503       Zn509   2.027       .  S
C504        O520   1.276       .  A
C504        O517   1.273       .  A
C504        C829   1.487       .  S
O505        C518   1.276       .  A
O505       Cd512   2.086       .  S
O506        C524   1.274       .  A
O506       Cd515   2.043       .  S
O507        C521   1.275       .  A
O507       Cd511   2.061       .  S
O508        C519   1.274       .  A
O508       Cd511   2.063       .  S
Zn509       O520   2.044       .  S
Zn509       O522   1.998       .  S
Zn509       O514   1.933       .  S
O510        C521   1.275       .  A
O510       Cd515   2.072       .  S
Cd511       O513   2.062       .  S
Cd511       O514   1.982       .  S
Cd512       O516   2.093       .  S
Cd512       O525   2.094       .  S
Cd512       O514   2.020       .  S
O513        C523   1.275       .  A
O514       Cd515   1.984       .  S
Cd515       O517   2.063       .  S
O516        C523   1.277       .  A
C518        O522   1.273       .  A
C518        C941   1.470       .  S
C519        C857   1.489       .  S
C521        C894   1.488       .  S
C523       C1146   1.495       .  S
C524        O525   1.278       .  A
C524        C922   1.479       .  S
O526        C542   1.273       .  A
O526       Zn532   2.021       .  S
C527        O543   1.276       .  A
C527        O540   1.275       .  A
C527        C689   1.489       .  S
O528        C541   1.277       .  A
O528       Cd535   2.077       .  S
O529        C547   1.274       .  A
O529       Cd538   2.066       .  S
O530        C544   1.275       .  A
O530       Cd534   2.062       .  S
O531        C542   1.276       .  A
O531       Cd534   2.068       .  S
Zn532       O543   2.032       .  S
Zn532       O545   2.004       .  S
Zn532       O537   1.942       .  S
O533        C544   1.276       .  A
O533       Cd538   2.075       .  S
Cd534       O536   2.067       .  S
Cd534       O537   1.984       .  S
Cd535       O539   2.110       .  S
Cd535       O548   2.090       .  S
Cd535       O537   2.014       .  S
O536        C546   1.275       .  A
O537       Cd538   1.991       .  S
Cd538       O540   2.070       .  S
O539        C546   1.279       .  A
C541        O545   1.274       .  A
C541        C661   1.483       .  S
C542        C717   1.490       .  S
C544        C782   1.487       .  S
C546        C801   1.494       .  S
C547        O548   1.279       .  A
C547        C745   1.491       .  S
C549       C2350   1.504       .  S
C549        N550   1.366   1_455  A
C549        N554   1.369       .  A
N550        C551   1.361       .  A
C551        C913   1.487       .  S
C551        N552   1.355   1_655  A
N552        C553   1.354       .  A
C553        C810   1.499       .  S
C553        N554   1.362       .  A
C555       C2070   1.494       .  S
C555        N556   1.366       .  A
C555        N560   1.361       .  A
N556        C557   1.364       .  A
C557       C1986   1.488   1_655  S
C557        N558   1.357       .  A
N558        C559   1.353       .  A
C559        C773   1.489       .  S
C559        N560   1.353       .  A
C561       C2098   1.492       .  S
C561        N562   1.362       .  A
C561        N566   1.361       .  A
N562        C563   1.361       .  A
C563        C754   1.483       .  S
C563        N564   1.355       .  A
N564        C565   1.356       .  A
C565       C1930   1.479       .  S
C565        N566   1.357       .  A
C567       C2126   1.502       .  S
C567        N568   1.370       .  A
C567        N572   1.367       .  A
N568        C569   1.365       .  A
C569       C1818   1.493   1_565  S
C569        N570   1.353       .  A
N570        C571   1.350       .  A
C571       C1081   1.486   1_565  S
C571        N572   1.359       .  A
C573       C2630   1.489       .  S
C573        N574   1.366   1_655  A
C573        N578   1.364       .  A
N574        C575   1.363       .  A
C575       C1893   1.483       .  S
C575        N576   1.356   1_455  A
N576        C577   1.353       .  A
C577        C997   1.477       .  S
C577        N578   1.357       .  A
C579       C2686   1.488       .  S
C579        N580   1.364       .  A
C579        N584   1.363   1_455  A
N580        C581   1.361       .  A
C581       C1874   1.491       .  S
C581        N582   1.358       .  A
N582        C583   1.354   1_455  A
C583        C978   1.494       .  S
C583        N584   1.358       .  A
C585       C2154   1.497       .  S
C585        N586   1.364       .  A
C585        N590   1.366       .  A
N586        C587   1.357       .  A
C587       C1389   1.492       .  S
C587        N588   1.355       .  A
N588        C589   1.355       .  A
C589       C1249   1.484       .  S
C589        N590   1.363       .  A
C591       C2938   1.484       .  S
C591        N592   1.360   1_545  A
C591        N596   1.365       .  A
N592        C593   1.354       .  A
C593       C1202   1.470       .  S
C593        N594   1.354       .  A
N594        C595   1.358   1_565  A
C595       C1706   1.491       .  S
C595        N596   1.363       .  A
C597       C2817   1.496       .  S
C597        N598   1.360       .  A
C597        N602   1.364   1_556  A
N598        C599   1.358       .  A
C599        C670   1.482       .  S
C599        N600   1.356       .  A
N600        C601   1.358   1_556  A
C601       C1370   1.488       .  S
C601        N602   1.359       .  A
C603       C2042   1.500       .  S
C603        N604   1.364       .  A
C603        N608   1.366       .  A
N604        C605   1.359       .  A
C605       C1734   1.491       .  S
C605        N606   1.354       .  A
N606        C607   1.358       .  A
C607       C1062   1.490       .  S
C607        N608   1.364       .  A
C609       C3442   1.485       .  S
C609        N610   1.363       .  A
C609        N614   1.367       .  A
N610        C611   1.359       .  A
C611       C1594   1.484       .  S
C611        N612   1.353       .  A
N612        C613   1.352       .  A
C613       C1305   1.478       .  S
C613        N614   1.362       .  A
C615       C2873   1.499       .  S
C615        N616   1.365       .  A
C615        N620   1.372   1_556  A
N616        C617   1.355       .  A
C617        C698   1.495       .  S
C617        N618   1.351   1_556  A
N618        C619   1.356       .  A
C619       C1333   1.501       .  S
C619        N620   1.368       .  A
C621       C2742   1.498       .  S
C621        N622   1.363   1_565  A
C621        N626   1.369       .  A
N622        C623   1.357       .  A
C623       C1669   1.481       .  S
C623        N624   1.351   1_545  A
N624        C625   1.353       .  A
C625       C1174   1.494       .  S
C625        N626   1.363       .  A
C627       C3106   1.489       .  S
C627        N628   1.363       .  A
C627        N632   1.364       .  A
N628        C629   1.358       .  A
C629       C1622   1.469       .  S
C629        N630   1.352       .  A
N630        C631   1.355       .  A
C631       C1762   1.489       .  S
C631        N632   1.362       .  A
C633       C2313   1.493       .  S
C633        N634   1.364       .  A
C633        N638   1.363       .  A
N634        C635   1.358       .  A
C635       C1566   1.478       .  S
C635        N636   1.354       .  A
N636        C637   1.354       .  A
C637       C1949   1.482       .  S
C637        N638   1.360       .  A
C639       C2257   1.490       .  S
C639        N640   1.368       .  A
C639        N644   1.362       .  A
N640        C641   1.366       .  A
C641        C885   1.494   1_455  S
C641        N642   1.357       .  A
N642        C643   1.351       .  A
C643        C726   1.486       .  S
C643        N644   1.355       .  A
C645       C2201   1.497       .  S
C645        N646   1.366   1_554  A
C645        N650   1.364       .  A
N646        C647   1.362       .  A
C647        C866   1.487       .  S
C647        N648   1.356   1_556  A
N648        C649   1.352       .  A
C649       C1230   1.490       .  S
C649        N650   1.358       .  A
C651       C2238   1.494       .  S
C651        N652   1.367       .  A
C651        N656   1.364   1_545  A
N652        C653   1.365       .  A
C653       C1034   1.492       .  S
C653        N654   1.358       .  A
N654        C655   1.353   1_545  A
C655        C838   1.481       .  S
C655        N656   1.357       .  A
C657        C658   1.397       .  A
C657        C662   1.394       .  A
C657        H667   1.086       .  S
C658        C663   1.475       .  S
C658        C659   1.407       .  A
C659        C660   1.404       .  A
C659        N664   1.428       .  S
C660        C661   1.407       .  A
C660        H665   1.085       .  S
C661        C662   1.415       .  A
C662        N666   1.428       .  S
C663        C668   1.408       .  A
C663        C672   1.399       .  A
N664        O679   1.262       .  A
N664        O680   1.262       .  A
N666        O677   1.262       .  A
N666        O678   1.262       .  A
C668        C669   1.399       .  A
C668        N673   1.429       .  S
C669        C670   1.405       .  A
C669        H674   1.084       .  S
C670        C671   1.415       .  A
C671        C672   1.399       .  A
C671        N675   1.429       .  S
C672        H676   1.085       .  S
N673        O683   1.262       .  A
N673        O684   1.261       .  A
N675        O681   1.262       .  A
N675        O682   1.262       .  A
C685        C686   1.405       .  A
C685        C690   1.402       .  A
C685        H695   1.085       .  S
C686        C691   1.491       .  S
C686        C687   1.411       .  A
C687        C688   1.401       .  A
C687        N692   1.429       .  S
C688        C689   1.407       .  A
C688        H693   1.085       .  S
C689        C690   1.414       .  A
C690        N694   1.429       .  S
C691        C696   1.410       .  A
C691        C700   1.405       .  A
N692        O707   1.262       .  A
N692        O708   1.262       .  A
N694        O705   1.262       .  A
N694        O706   1.262       .  A
C696        C697   1.397       .  A
C696        N701   1.430       .  S
C697        C698   1.408       .  A
C697        H702   1.085       .  S
C698        C699   1.417       .  A
C699        C700   1.406       .  A
C699        N703   1.428       .  S
C700        H704   1.085       .  S
N701        O711   1.262       .  A
N701        O712   1.262       .  A
N703        O709   1.262       .  A
N703        O710   1.262       .  A
C713        C714   1.402       .  A
C713        C718   1.403       .  A
C713        H723   1.086       .  S
C714        C719   1.486       .  S
C714        C715   1.410       .  A
C715        C716   1.397       .  A
C715        N720   1.430       .  S
C716        C717   1.406       .  A
C716        H721   1.085       .  S
C717        C718   1.418       .  A
C718        N722   1.429       .  S
C719        C724   1.411       .  A
C719        C728   1.401       .  A
N720        O735   1.262       .  A
N720        O736   1.262       .  A
N722        O733   1.262       .  A
N722        O734   1.261       .  A
C724        C725   1.403   1_556  A
C724        N729   1.429   1_556  S
C725        C726   1.407       .  A
C725        H730   1.086       .  S
C726        C727   1.415   1_554  A
C727        C728   1.397       .  A
C727        N731   1.430       .  S
C728        H732   1.086       .  S
N729        O739   1.262       .  A
N729        O740   1.262       .  A
N731        O737   1.262       .  A
N731        O738   1.262       .  A
C741        C742   1.400       .  A
C741        C746   1.400       .  A
C741        H751   1.086       .  S
C742        C747   1.482       .  S
C742        C743   1.408       .  A
C743        C744   1.403       .  A
C743        N748   1.428       .  S
C744        C745   1.407       .  A
C744        H749   1.085       .  S
C745        C746   1.419       .  A
C746        N750   1.430       .  S
C747        C752   1.409       .  A
C747        C756   1.400       .  A
N748        O763   1.262       .  A
N748        O764   1.262       .  A
N750        O761   1.262       .  A
N750        O762   1.262       .  A
C752        C753   1.401       .  A
C752        N757   1.428       .  S
C753        C754   1.404       .  A
C753        H758   1.086       .  S
C754        C755   1.415       .  A
C755        C756   1.400       .  A
C755        N759   1.429       .  S
C756        H760   1.086       .  S
N757        O767   1.262       .  A
N757        O768   1.261       .  A
N759        O765   1.262       .  A
N759        O766   1.262       .  A
C769        C770   1.401       .  A
C769        C774   1.402   1_455  A
C769        H779   1.085   1_455  S
C770        C775   1.481       .  S
C770        C771   1.408       .  A
C771        C772   1.396       .  A
C771        N776   1.430       .  S
C772        C773   1.407   1_455  A
C772        H777   1.084       .  S
C773        C774   1.418       .  A
C774        N778   1.428       .  S
C775        C780   1.407       .  A
C775        C784   1.402       .  A
N776        O791   1.262       .  A
N776        O792   1.262       .  A
N778        O789   1.262       .  A
N778        O790   1.262       .  A
C780        C781   1.399       .  A
C780        N785   1.429       .  S
C781        C782   1.409       .  A
C781        H786   1.084       .  S
C782        C783   1.414       .  A
C783        C784   1.399       .  A
C783        N787   1.429       .  S
C784        H788   1.085       .  S
N785        O795   1.262   1_455  A
N785        O796   1.262       .  A
N787        O793   1.262       .  A
N787        O794   1.262       .  A
C797        C798   1.404       .  A
C797        C802   1.409       .  A
C797        H807   1.085       .  S
C798        C803   1.487       .  S
C798        C799   1.406       .  A
C799        C800   1.400       .  A
C799        N804   1.429       .  S
C800        C801   1.408       .  A
C800        H805   1.085       .  S
C801        C802   1.415       .  A
C802        N806   1.428       .  S
C803        C808   1.406       .  A
C803        C812   1.404       .  A
N804        O819   1.262       .  A
N804        O820   1.262       .  A
N806        O817   1.262       .  A
N806        O818   1.262       .  A
C808        C809   1.401       .  A
C808        N813   1.429       .  S
C809        C810   1.411       .  A
C809        H814   1.085       .  S
C810        C811   1.416       .  A
C811        C812   1.408       .  A
C811        N815   1.428       .  S
C812        H816   1.085       .  S
N813        O823   1.262       .  A
N813        O824   1.262       .  A
N815        O821   1.262       .  A
N815        O822   1.262       .  A
C825        C826   1.405       .  A
C825        C830   1.402       .  A
C825        H835   1.085       .  S
C826        C831   1.491       .  S
C826        C827   1.412       .  A
C827        C828   1.404       .  A
C827        N832   1.431       .  S
C828        C829   1.406       .  A
C828        H833   1.085       .  S
C829        C830   1.413       .  A
C830        N834   1.429       .  S
C831        C836   1.416   1_655  A
C831        C840   1.403       .  A
N832        O847   1.262   1_655  A
N832        O848   1.262   1_655  A
N834        O845   1.262       .  A
N834        O846   1.262       .  A
C836        C837   1.406       .  A
C836        N841   1.431       .  S
C837        C838   1.403       .  A
C837        H842   1.085       .  S
C838        C839   1.410   1_455  A
C839        C840   1.400       .  A
C839        N843   1.429   1_565  S
C840        H844   1.085       .  S
N841        O851   1.262   1_455  A
N841        O852   1.262       .  A
N843        O849   1.262       .  A
N843        O850   1.262       .  A
C853        C854   1.400       .  A
C853        C858   1.400       .  A
C853        H863   1.086       .  S
C854        C859   1.476       .  S
C854        C855   1.404       .  A
C855        C856   1.399       .  A
C855        N860   1.428       .  S
C856        C857   1.409       .  A
C856        H861   1.085       .  S
C857        C858   1.418       .  A
C858        N862   1.430       .  S
C859        C864   1.403       .  A
C859        C868   1.402       .  A
N860        O875   1.262   1_565  A
N860        O876   1.262       .  A
N862        O873   1.262       .  A
N862        O874   1.262       .  A
C864        C865   1.393       .  A
C864        N869   1.429       .  S
C865        C866   1.407   1_565  A
C865        H870   1.085       .  S
C866        C867   1.418       .  A
C867        C868   1.408   1_545  A
C867        N871   1.431       .  S
C868        H872   1.086   1_565  S
N869        O879   1.262       .  A
N869        O880   1.262       .  A
N871        O877   1.262   1_556  A
N871        O878   1.262       .  A
C881        C882   1.404       .  A
C881        C886   1.405   1_556  A
C881        H891   1.086   1_556  S
C882        C887   1.485       .  S
C882        C883   1.407       .  A
C883        C884   1.394       .  A
C883        N888   1.431       .  S
C884        C885   1.410   1_556  A
C884        H889   1.085   1_655  S
C885        C886   1.415       .  A
C886        N890   1.426       .  S
C887        C892   1.408       .  A
C887        C896   1.404       .  A
N888        O903   1.262       .  A
N888        O904   1.262       .  A
N890        O901   1.262       .  A
N890        O902   1.261   1_655  A
C892        C893   1.398       .  A
C892        N897   1.429       .  S
C893        C894   1.408       .  A
C893        H898   1.085       .  S
C894        C895   1.415       .  A
C895        C896   1.401       .  A
C895        N899   1.429       .  S
C896        H900   1.085       .  S
N897        O907   1.262       .  A
N897        O908   1.262       .  A
N899        O905   1.262       .  A
N899        O906   1.262       .  A
C909        C910   1.404       .  A
C909        C914   1.407       .  A
C909        H919   1.081       .  S
C910        C915   1.484       .  S
C910        C911   1.407       .  A
C911        C912   1.396       .  A
C911        N916   1.429       .  S
C912        C913   1.407       .  A
C912        H917   1.082       .  S
C913        C914   1.415       .  A
C914        N918   1.430       .  S
C915        C920   1.409       .  A
C915        C924   1.407       .  A
N916        O931   1.262       .  A
N916        O932   1.262       .  A
N918        O929   1.262       .  A
N918        O930   1.262       .  A
C920        C921   1.395       .  A
C920        N925   1.430       .  S
C921        C922   1.405       .  A
C921        H926   1.085       .  S
C922        C923   1.410       .  A
C923        C924   1.404       .  A
C923        N927   1.428       .  S
C924        H928   1.084       .  S
N925        O935   1.262       .  A
N925        O936   1.262       .  A
N927        O933   1.262       .  A
N927        O934   1.262       .  A
C937        C938   1.406       .  A
C937        C942   1.405       .  A
C937        H947   1.086       .  S
C938        C943   1.484       .  S
C938        C939   1.411       .  A
C939        C940   1.394       .  A
C939        N944   1.430       .  S
C940        C941   1.399       .  A
C940        H945   1.087       .  S
C941        C942   1.410       .  A
C942        N946   1.429       .  S
C943        C948   1.410       .  A
C943        C952   1.403       .  A
N944        O959   1.262       .  A
N944        O960   1.262       .  A
N946        O957   1.262       .  A
N946        O958   1.262       .  A
C948        C949   1.404       .  A
C948        N953   1.429       .  S
C949        C950   1.406       .  A
C949        H954   1.086       .  S
C950        C951   1.411       .  A
C951        C952   1.395       .  A
C951        N955   1.429       .  S
C952        H956   1.087       .  S
N953        O963   1.262       .  A
N953        O964   1.262       .  A
N955        O961   1.262   1_565  A
N955        O962   1.262   1_565  A
C965        C966   1.402       .  A
C965        C970   1.404       .  A
C965        H975   1.085       .  S
C966        C971   1.488       .  S
C966        C967   1.409       .  A
C967        C968   1.402       .  A
C967        N972   1.429       .  S
C968        C969   1.407       .  A
C968        H973   1.085       .  S
C969        C970   1.419       .  A
C970        N974   1.429       .  S
C971        C976   1.409       .  A
C971        C980   1.401       .  A
N972        O987   1.262       .  A
N972        O988   1.262       .  A
N974        O985   1.262       .  A
N974        O986   1.262       .  A
C976        C977   1.405       .  A
C976        N981   1.429       .  S
C977        C978   1.409       .  A
C977        H982   1.085       .  S
C978        C979   1.419       .  A
C979        C980   1.400       .  A
C979        N983   1.431       .  S
C980        H984   1.086       .  S
N981        O991   1.262       .  A
N981        O992   1.262       .  A
N983        O989   1.262   1_655  A
N983        O990   1.262       .  A
C993        C994   1.403       .  A
C993        C998   1.398       .  A
C993       H1003   1.086       .  S
C994        C999   1.486       .  S
C994        C995   1.411       .  A
C995        C996   1.405       .  A
C995       N1000   1.428       .  S
C996        C997   1.404       .  A
C996       H1001   1.086       .  S
C997        C998   1.409       .  A
C998       N1002   1.430       .  S
C999       C1004   1.410       .  A
C999       C1008   1.405       .  A
N1000      O1015   1.262       .  A
N1000      O1016   1.262       .  A
N1002      O1013   1.262       .  A
N1002      O1014   1.262       .  A
C1004      C1005   1.398       .  A
C1004      N1009   1.429       .  S
C1005      C1006   1.402       .  A
C1005      H1010   1.086       .  S
C1006      C1007   1.413       .  A
C1007      C1008   1.406       .  A
C1007      N1011   1.429       .  S
C1008      H1012   1.085       .  S
N1009      O1019   1.262       .  A
N1009      O1020   1.262       .  A
N1011      O1017   1.262       .  A
N1011      O1018   1.262       .  A
C1021      C1022   1.404       .  A
C1021      C1026   1.407       .  A
C1021      H1031   1.085       .  S
C1022      C1027   1.481       .  S
C1022      C1023   1.405       .  A
C1023      C1024   1.396       .  A
C1023      N1028   1.429       .  S
C1024      C1025   1.407       .  A
C1024      H1029   1.085       .  S
C1025      C1026   1.414       .  A
C1026      N1030   1.428       .  S
C1027      C1032   1.404       .  A
C1027      C1036   1.402       .  A
N1028      O1043   1.262       .  A
N1028      O1044   1.262       .  A
N1030      O1041   1.262       .  A
N1030      O1042   1.262       .  A
C1032      C1033   1.398       .  A
C1032      N1037   1.429       .  S
C1033      C1034   1.409   1_655  A
C1033      H1038   1.085       .  S
C1034      C1035   1.417       .  A
C1035      C1036   1.407   1_455  A
C1035      N1039   1.429       .  S
C1036      H1040   1.085   1_655  S
N1037      O1047   1.262       .  A
N1037      O1048   1.262       .  A
N1039      O1045   1.262       .  A
N1039      O1046   1.262       .  A
C1049      C1050   1.402       .  A
C1049      C1054   1.402       .  A
C1049      H1059   1.086       .  S
C1050      C1055   1.480       .  S
C1050      C1051   1.404       .  A
C1051      C1052   1.399       .  A
C1051      N1056   1.429       .  S
C1052      C1053   1.409       .  A
C1052      H1057   1.085       .  S
C1053      C1054   1.418       .  A
C1054      N1058   1.430       .  S
C1055      C1060   1.404       .  A
C1055      C1064   1.402       .  A
N1056      O1071   1.262       .  A
N1056      O1072   1.262       .  A
N1058      O1069   1.262       .  A
N1058      O1070   1.262       .  A
C1060      C1061   1.395       .  A
C1060      N1065   1.429       .  S
C1061      C1062   1.407       .  A
C1061      H1066   1.086       .  S
C1062      C1063   1.418       .  A
C1063      C1064   1.408       .  A
C1063      N1067   1.431       .  S
C1064      H1068   1.086       .  S
N1065      O1075   1.262       .  A
N1065      O1076   1.262       .  A
N1067      O1073   1.262       .  A
N1067      O1074   1.262       .  A
C1077      C1078   1.403       .  A
C1077      C1082   1.405   1_545  A
C1077      H1087   1.085       .  S
C1078      C1083   1.480       .  S
C1078      C1079   1.405       .  A
C1079      C1080   1.398       .  A
C1079      N1084   1.429       .  S
C1080      C1081   1.408       .  A
C1080      H1085   1.085       .  S
C1081      C1082   1.413   1_545  A
C1082      N1086   1.428       .  S
C1083      C1088   1.405       .  A
C1083      C1092   1.402       .  A
N1084      O1099   1.262       .  A
N1084      O1100   1.262       .  A
N1086      O1097   1.262       .  A
N1086      O1098   1.262       .  A
C1088      C1089   1.396       .  A
C1088      N1093   1.429       .  S
C1089      C1090   1.408       .  A
C1089      H1094   1.084       .  S
C1090      C1091   1.418       .  A
C1091      C1092   1.408       .  A
C1091      N1095   1.428       .  S
C1092      H1096   1.085       .  S
N1093      O1103   1.262       .  A
N1093      O1104   1.262       .  A
N1095      O1101   1.262       .  A
N1095      O1102   1.262       .  A
C1105      C1106   1.402       .  A
C1105      C1110   1.400       .  A
C1105      H1115   1.085       .  S
C1106      C1111   1.481       .  S
C1106      C1107   1.406       .  A
C1107      C1108   1.400       .  A
C1107      N1112   1.429       .  S
C1108      C1109   1.409       .  A
C1108      H1113   1.085       .  S
C1109      C1110   1.415       .  A
C1110      N1114   1.430       .  S
C1111      C1116   1.405       .  A
C1111      C1120   1.402       .  A
N1112      O1127   1.262       .  A
N1112      O1128   1.262       .  A
N1114      O1125   1.262       .  A
N1114      O1126   1.262       .  A
C1116      C1117   1.393       .  A
C1116      N1121   1.430       .  S
C1117      C1118   1.409       .  A
C1117      H1122   1.085       .  S
C1118      C1119   1.418       .  A
C1119      C1120   1.408       .  A
C1119      N1123   1.431       .  S
C1120      H1124   1.085       .  S
N1121      O1131   1.262       .  A
N1121      O1132   1.262       .  A
N1123      O1129   1.263       .  A
N1123      O1130   1.262       .  A
C1133      C1134   1.402       .  A
C1133      C1138   1.406       .  A
C1133      H1143   1.085       .  S
C1134      C1139   1.479       .  S
C1134      C1135   1.405       .  A
C1135      C1136   1.398       .  A
C1135      N1140   1.429       .  S
C1136      C1137   1.407       .  A
C1136      H1141   1.085       .  S
C1137      C1138   1.414       .  A
C1138      N1142   1.429       .  S
C1139      C1144   1.405       .  A
C1139      C1148   1.400       .  A
N1140      O1155   1.262       .  A
N1140      O1156   1.262       .  A
N1142      O1153   1.262       .  A
N1142      O1154   1.262       .  A
C1144      C1145   1.397       .  A
C1144      N1149   1.430       .  S
C1145      C1146   1.409       .  A
C1145      H1150   1.084       .  S
C1146      C1147   1.419       .  A
C1147      C1148   1.406       .  A
C1147      N1151   1.428       .  S
C1148      H1152   1.085       .  S
N1149      O1159   1.262       .  A
N1149      O1160   1.262       .  A
N1151      O1157   1.262       .  A
N1151      O1158   1.262       .  A
C1161      C1162   1.404       .  A
C1161      C1166   1.403       .  A
C1161      H1171   1.085       .  S
C1162      C1167   1.492       .  S
C1162      C1163   1.408       .  A
C1163      C1164   1.402       .  A
C1163      N1168   1.428       .  S
C1164      C1165   1.409       .  A
C1164      H1169   1.085       .  S
C1165      C1166   1.418       .  A
C1166      N1170   1.429       .  S
C1167      C1172   1.409       .  A
C1167      C1176   1.407       .  A
N1168      O1183   1.262       .  A
N1168      O1184   1.262       .  A
N1170      O1181   1.262       .  A
N1170      O1182   1.262       .  A
C1172      C1173   1.395       .  A
C1172      N1177   1.430       .  S
C1173      C1174   1.408       .  A
C1173      H1178   1.086       .  S
C1174      C1175   1.415       .  A
C1175      C1176   1.409       .  A
C1175      N1179   1.428       .  S
C1176      H1180   1.086       .  S
N1177      O1187   1.262       .  A
N1177      O1188   1.262       .  A
N1179      O1185   1.262       .  A
N1179      O1186   1.262       .  A
C1189      C1190   1.402       .  A
C1189      C1194   1.408       .  A
C1189      H1199   1.085       .  S
C1190      C1195   1.476       .  S
C1190      C1191   1.404       .  A
C1191      C1192   1.393       .  A
C1191      N1196   1.430       .  S
C1192      C1193   1.409       .  A
C1192      H1197   1.085       .  S
C1193      C1194   1.418       .  A
C1194      N1198   1.428       .  S
C1195      C1200   1.407       .  A
C1195      C1204   1.402       .  A
N1196      O1211   1.262       .  A
N1196      O1212   1.262       .  A
N1198      O1209   1.262       .  A
N1198      O1210   1.262       .  A
C1200      C1201   1.399       .  A
C1200      N1205   1.428       .  S
C1201      C1202   1.402       .  A
C1201      H1206   1.085       .  S
C1202      C1203   1.409       .  A
C1203      C1204   1.401       .  A
C1203      N1207   1.429       .  S
C1204      H1208   1.085       .  S
N1205      O1215   1.262       .  A
N1205      O1216   1.262       .  A
N1207      O1213   1.262       .  A
N1207      O1214   1.262       .  A
C1217      C1218   1.402       .  A
C1217      C1222   1.403       .  A
C1217      H1227   1.086       .  S
C1218      C1223   1.488       .  S
C1218      C1219   1.409       .  A
C1219      C1220   1.401       .  A
C1219      N1224   1.429       .  S
C1220      C1221   1.408       .  A
C1220      H1225   1.085       .  S
C1221      C1222   1.419       .  A
C1222      N1226   1.429       .  S
C1223      C1228   1.410       .  A
C1223      C1232   1.401       .  A
N1224      O1239   1.262       .  A
N1224      O1240   1.262       .  A
N1226      O1237   1.262       .  A
N1226      O1238   1.262       .  A
C1228      C1229   1.404   1_565  A
C1228      N1233   1.428   1_565  S
C1229      C1230   1.407       .  A
C1229      H1234   1.086       .  S
C1230      C1231   1.417   1_545  A
C1231      C1232   1.399       .  A
C1231      N1235   1.430       .  S
C1232      H1236   1.086       .  S
N1233      O1243   1.262       .  A
N1233      O1244   1.262       .  A
N1235      O1241   1.262       .  A
N1235      O1242   1.262       .  A
C1245      C1246   1.403       .  A
C1245      C1250   1.404       .  A
C1245      H1255   1.085       .  S
C1246      C1251   1.484       .  S
C1246      C1247   1.407       .  A
C1247      C1248   1.400       .  A
C1247      N1252   1.429       .  S
C1248      C1249   1.407       .  A
C1248      H1253   1.085       .  S
C1249      C1250   1.413       .  A
C1250      N1254   1.429       .  S
C1251      C1256   1.407       .  A
C1251      C1260   1.402       .  A
N1252      O1267   1.262       .  A
N1252      O1268   1.262       .  A
N1254      O1265   1.262       .  A
N1254      O1266   1.262       .  A
C1256      C1257   1.397       .  A
C1256      N1261   1.429       .  S
C1257      C1258   1.407       .  A
C1257      H1262   1.085       .  S
C1258      C1259   1.418       .  A
C1259      C1260   1.407       .  A
C1259      N1263   1.428       .  S
C1260      H1264   1.085       .  S
N1261      O1271   1.262       .  A
N1261      O1272   1.262       .  A
N1263      O1269   1.262       .  A
N1263      O1270   1.262       .  A
C1273      C1274   1.403       .  A
C1273      C1278   1.406       .  A
C1273      H1283   1.085       .  S
C1274      C1279   1.482       .  S
C1274      C1275   1.405       .  A
C1275      C1276   1.399       .  A
C1275      N1280   1.429       .  S
C1276      C1277   1.407       .  A
C1276      H1281   1.085       .  S
C1277      C1278   1.415       .  A
C1278      N1282   1.428       .  S
C1279      C1284   1.405       .  A
C1279      C1288   1.403       .  A
N1280      O1295   1.262       .  A
N1280      O1296   1.262       .  A
N1282      O1293   1.262       .  A
N1282      O1294   1.262       .  A
C1284      C1285   1.397       .  A
C1284      N1289   1.429       .  S
C1285      C1286   1.409       .  A
C1285      H1290   1.085       .  S
C1286      C1287   1.416       .  A
C1287      C1288   1.407       .  A
C1287      N1291   1.428       .  S
C1288      H1292   1.085       .  S
N1289      O1299   1.262       .  A
N1289      O1300   1.262       .  A
N1291      O1297   1.262       .  A
N1291      O1298   1.262       .  A
C1301      C1302   1.405       .  A
C1301      C1306   1.406       .  A
C1301      H1311   1.085       .  S
C1302      C1307   1.484       .  S
C1302      C1303   1.408       .  A
C1303      C1304   1.399       .  A
C1303      N1308   1.430       .  S
C1304      C1305   1.404       .  A
C1304      H1309   1.086       .  S
C1305      C1306   1.410       .  A
C1306      N1310   1.429       .  S
C1307      C1312   1.409       .  A
C1307      C1316   1.403       .  A
N1308      O1323   1.262       .  A
N1308      O1324   1.262       .  A
N1310      O1321   1.262       .  A
N1310      O1322   1.262       .  A
C1312      C1313   1.398       .  A
C1312      N1317   1.431       .  S
C1313      C1314   1.406       .  A
C1313      H1318   1.085       .  S
C1314      C1315   1.416       .  A
C1315      C1316   1.408       .  A
C1315      N1319   1.428       .  S
C1316      H1320   1.084       .  S
N1317      O1327   1.262       .  A
N1317      O1328   1.262       .  A
N1319      O1325   1.262       .  A
N1319      O1326   1.262       .  A
C1329      C1330   1.399       .  A
C1329      C1334   1.407       .  A
C1329      H1339   1.085       .  S
C1330      C1335   1.477       .  S
C1330      C1331   1.401       .  A
C1331      C1332   1.395       .  A
C1331      N1336   1.429       .  S
C1332      C1333   1.413       .  A
C1332      H1337   1.084       .  S
C1333      C1334   1.418       .  A
C1334      N1338   1.424       .  S
C1335      C1340   1.405       .  A
C1335      C1344   1.401       .  A
N1336      O1351   1.262       .  A
N1336      O1352   1.262       .  A
N1338      O1349   1.262       .  A
N1338      O1350   1.261       .  A
C1340      C1341   1.400       .  A
C1340      N1345   1.428       .  S
C1341      C1342   1.407       .  A
C1341      H1346   1.085       .  S
C1342      C1343   1.415       .  A
C1343      C1344   1.401       .  A
C1343      N1347   1.429       .  S
C1344      H1348   1.085       .  S
N1345      O1355   1.262       .  A
N1345      O1356   1.262       .  A
N1347      O1353   1.262       .  A
N1347      O1354   1.262       .  A
C1357      C1358   1.403       .  A
C1357      C1362   1.398       .  A
C1357      H1367   1.086       .  S
C1358      C1363   1.487       .  S
C1358      C1359   1.412       .  A
C1359      C1360   1.404       .  A
C1359      N1364   1.428       .  S
C1360      C1361   1.403       .  A
C1360      H1365   1.086       .  S
C1361      C1362   1.410       .  A
C1362      N1366   1.429       .  S
C1363      C1368   1.411       .  A
C1363      C1372   1.403       .  A
N1364      O1379   1.262       .  A
N1364      O1380   1.262       .  A
N1366      O1377   1.262       .  A
N1366      O1378   1.262       .  A
C1368      C1369   1.395       .  A
C1368      N1373   1.430       .  S
C1369      C1370   1.403       .  A
C1369      H1374   1.090   1_554  S
C1370      C1371   1.417       .  A
C1371      C1372   1.405       .  A
C1371      N1375   1.429       .  S
C1372      H1376   1.089       .  S
N1373      O1383   1.262       .  A
N1373      O1384   1.262       .  A
N1375      O1381   1.262       .  A
N1375      O1382   1.262       .  A
C1385      C1386   1.400       .  A
C1385      C1390   1.405       .  A
C1385      H1395   1.085       .  S
C1386      C1391   1.481       .  S
C1386      C1387   1.407       .  A
C1387      C1388   1.397       .  A
C1387      N1392   1.430       .  S
C1388      C1389   1.408       .  A
C1388      H1393   1.085       .  S
C1389      C1390   1.418       .  A
C1390      N1394   1.428       .  S
C1391      C1396   1.406       .  A
C1391      C1400   1.406       .  A
N1392      O1407   1.262       .  A
N1392      O1408   1.262       .  A
N1394      O1405   1.262       .  A
N1394      O1406   1.262       .  A
C1396      C1397   1.396       .  A
C1396      N1401   1.430       .  S
C1397      C1398   1.406       .  A
C1397      H1402   1.086       .  S
C1398      C1399   1.410       .  A
C1399      C1400   1.407       .  A
C1399      N1403   1.428       .  S
C1400      H1404   1.085       .  S
N1401      O1411   1.262       .  A
N1401      O1412   1.262       .  A
N1403      O1409   1.262       .  A
N1403      O1410   1.262       .  A
C1413      C1414   1.405       .  A
C1413      C1418   1.406       .  A
C1413      H1423   1.085       .  S
C1414      C1419   1.493       .  S
C1414      C1415   1.408       .  A
C1415      C1416   1.403       .  A
C1415      N1420   1.428       .  S
C1416      C1417   1.411       .  A
C1416      H1421   1.084       .  S
C1417      C1418   1.417       .  A
C1418      N1422   1.429       .  S
C1419      C1424   1.409       .  A
C1419      C1428   1.407       .  A
N1420      O1435   1.262       .  A
N1420      O1436   1.262       .  A
N1422      O1433   1.262       .  A
N1422      O1434   1.262       .  A
C1424      C1425   1.399       .  A
C1424      N1429   1.429       .  S
C1425      C1426   1.406   1_554  A
C1425      H1430   1.085       .  S
C1426      C1427   1.414       .  A
C1427      C1428   1.410   1_556  A
C1427      N1431   1.428       .  S
C1428      H1432   1.085       .  S
N1429      O1439   1.262       .  A
N1429      O1440   1.262       .  A
N1431      O1437   1.262       .  A
N1431      O1438   1.262       .  A
C1441      C1442   1.400       .  A
C1441      C1446   1.406   1_554  A
C1441      H1451   1.085   1_554  S
C1442      C1447   1.475       .  S
C1442      C1443   1.403       .  A
C1443      C1444   1.395       .  A
C1443      N1448   1.429       .  S
C1444      C1445   1.405   1_554  A
C1444      H1449   1.085       .  S
C1445      C1446   1.417       .  A
C1446      N1450   1.432       .  S
C1447      C1452   1.404       .  A
C1447      C1456   1.400       .  A
N1448      O1463   1.262       .  A
N1448      O1464   1.262       .  A
N1450      O1461   1.262       .  A
N1450      O1462   1.262       .  A
C1452      C1453   1.400       .  A
C1452      N1457   1.429       .  S
C1453      C1454   1.409       .  A
C1453      H1458   1.084       .  S
C1454      C1455   1.416       .  A
C1455      C1456   1.400       .  A
C1455      N1459   1.429       .  S
C1456      H1460   1.085       .  S
N1457      O1467   1.262       .  A
N1457      O1468   1.262       .  A
N1459      O1465   1.262       .  A
N1459      O1466   1.262       .  A
C1469      C1470   1.402       .  A
C1469      C1474   1.399       .  A
C1469      H1479   1.086       .  S
C1470      C1475   1.485       .  S
C1470      C1471   1.410       .  A
C1471      C1472   1.402       .  A
C1471      N1476   1.429       .  S
C1472      C1473   1.407       .  A
C1472      H1477   1.086       .  S
C1473      C1474   1.415       .  A
C1474      N1478   1.430       .  S
C1475      C1480   1.409       .  A
C1475      C1484   1.402       .  A
N1476      O1491   1.262       .  A
N1476      O1492   1.262       .  A
N1478      O1489   1.262       .  A
N1478      O1490   1.262       .  A
C1480      C1481   1.399       .  A
C1480      N1485   1.429       .  S
C1481      C1482   1.406       .  A
C1481      H1486   1.085       .  S
C1482      C1483   1.419       .  A
C1483      C1484   1.402       .  A
C1483      N1487   1.429       .  S
C1484      H1488   1.086       .  S
N1485      O1495   1.262       .  A
N1485      O1496   1.262       .  A
N1487      O1493   1.262       .  A
N1487      O1494   1.262       .  A
C1497      C1498   1.401       .  A
C1497      C1502   1.403       .  A
C1497      H1507   1.086       .  S
C1498      C1503   1.491       .  S
C1498      C1499   1.412       .  A
C1499      C1500   1.405       .  A
C1499      N1504   1.429       .  S
C1500      C1501   1.406       .  A
C1500      H1505   1.085       .  S
C1501      C1502   1.417       .  A
C1502      N1506   1.428       .  S
C1503      C1508   1.412       .  A
C1503      C1512   1.401       .  A
N1504      O1519   1.262       .  A
N1504      O1520   1.261       .  A
N1506      O1517   1.262       .  A
N1506      O1518   1.262       .  A
C1508      C1509   1.405       .  A
C1508      N1513   1.428       .  S
C1509      C1510   1.406       .  A
C1509      H1514   1.085       .  S
C1510      C1511   1.419       .  A
C1511      C1512   1.403       .  A
C1511      N1515   1.429       .  S
C1512      H1516   1.086       .  S
N1513      O1523   1.262       .  A
N1513      O1524   1.262       .  A
N1515      O1521   1.262       .  A
N1515      O1522   1.262       .  A
C1525      C1526   1.403       .  A
C1525      C1530   1.403       .  A
C1525      H1535   1.085       .  S
C1526      C1531   1.486       .  S
C1526      C1527   1.408       .  A
C1527      C1528   1.401       .  A
C1527      N1532   1.428       .  S
C1528      C1529   1.406       .  A
C1528      H1533   1.085       .  S
C1529      C1530   1.414       .  A
C1530      N1534   1.428       .  S
C1531      C1536   1.407       .  A
C1531      C1540   1.405       .  A
N1532      O1547   1.262       .  A
N1532      O1548   1.262       .  A
N1534      O1545   1.262       .  A
N1534      O1546   1.262       .  A
C1536      C1537   1.395       .  A
C1536      N1541   1.430       .  S
C1537      C1538   1.407       .  A
C1537      H1542   1.085       .  S
C1538      C1539   1.415       .  A
C1539      C1540   1.409       .  A
C1539      N1543   1.428       .  S
C1540      H1544   1.085       .  S
N1541      O1551   1.262       .  A
N1541      O1552   1.262       .  A
N1543      O1549   1.262       .  A
N1543      O1550   1.262       .  A
C1553      C1554   1.400       .  A
C1553      C1558   1.404       .  A
C1553      H1563   1.085       .  S
C1554      C1559   1.478       .  S
C1554      C1555   1.406       .  A
C1555      C1556   1.398       .  A
C1555      N1560   1.429       .  S
C1556      C1557   1.407       .  A
C1556      H1561   1.084       .  S
C1557      C1558   1.420       .  A
C1558      N1562   1.429       .  S
C1559      C1564   1.409       .  A
C1559      C1568   1.399       .  A
N1560      O1575   1.262       .  A
N1560      O1576   1.262       .  A
N1562      O1573   1.262       .  A
N1562      O1574   1.262       .  A
C1564      C1565   1.406       .  A
C1564      N1569   1.429       .  S
C1565      C1566   1.406       .  A
C1565      H1570   1.086       .  S
C1566      C1567   1.411       .  A
C1567      C1568   1.394       .  A
C1567      N1571   1.430       .  S
C1568      H1572   1.086       .  S
N1569      O1579   1.262       .  A
N1569      O1580   1.262       .  A
N1571      O1577   1.262       .  A
N1571      O1578   1.262       .  A
C1581      C1582   1.404       .  A
C1581      C1586   1.402       .  A
C1581      H1591   1.085       .  S
C1582      C1587   1.481       .  S
C1582      C1583   1.405       .  A
C1583      C1584   1.397       .  A
C1583      N1588   1.429       .  S
C1584      C1585   1.410       .  A
C1584      H1589   1.085       .  S
C1585      C1586   1.415       .  A
C1586      N1590   1.429       .  S
C1587      C1592   1.406       .  A
C1587      C1596   1.404       .  A
N1588      O1603   1.262       .  A
N1588      O1604   1.262       .  A
N1590      O1601   1.262       .  A
N1590      O1602   1.262       .  A
C1592      C1593   1.395       .  A
C1592      N1597   1.430       .  S
C1593      C1594   1.407       .  A
C1593      H1598   1.085       .  S
C1594      C1595   1.414       .  A
C1595      C1596   1.404       .  A
C1595      N1599   1.429       .  S
C1596      H1600   1.085       .  S
N1597      O1607   1.262       .  A
N1597      O1608   1.262       .  A
N1599      O1605   1.262       .  A
N1599      O1606   1.262       .  A
C1609      C1610   1.401       .  A
C1609      C1614   1.401       .  A
C1609      H1619   1.085       .  S
C1610      C1615   1.487       .  S
C1610      C1611   1.411       .  A
C1611      C1612   1.404       .  A
C1611      N1616   1.431       .  S
C1612      C1613   1.408       .  A
C1612      H1617   1.085       .  S
C1613      C1614   1.418       .  A
C1614      N1618   1.429       .  S
C1615      C1620   1.414       .  A
C1615      C1624   1.405       .  A
N1616      O1631   1.262       .  A
N1616      O1632   1.262       .  A
N1618      O1629   1.262       .  A
N1618      O1630   1.262       .  A
C1620      C1621   1.405       .  A
C1620      N1625   1.431       .  S
C1621      C1622   1.401       .  A
C1621      H1626   1.083       .  S
C1622      C1623   1.405       .  A
C1623      C1624   1.399       .  A
C1623      N1627   1.429       .  S
C1624      H1628   1.083       .  S
N1625      O1635   1.262       .  A
N1625      O1636   1.262       .  A
N1627      O1633   1.262       .  A
N1627      O1634   1.261       .  A
C1637      C1638   1.406       .  A
C1637      C1642   1.405       .  A
C1637      H1647   1.085       .  S
C1638      C1643   1.489       .  S
C1638      C1639   1.410       .  A
C1639      C1640   1.401       .  A
C1639      N1644   1.429       .  S
C1640      C1641   1.404       .  A
C1640      H1645   1.085       .  S
C1641      C1642   1.409       .  A
C1642      N1646   1.428       .  S
C1643      C1648   1.409       .  A
C1643      C1652   1.405       .  A
N1644      O1659   1.262       .  A
N1644      O1660   1.262       .  A
N1646      O1657   1.262       .  A
N1646      O1658   1.262       .  A
C1648      C1649   1.397       .  A
C1648      N1653   1.429       .  S
C1649      C1650   1.407       .  A
C1649      H1654   1.085       .  S
C1650      C1651   1.416       .  A
C1651      C1652   1.408       .  A
C1651      N1655   1.428       .  S
C1652      H1656   1.085       .  S
N1653      O1663   1.262       .  A
N1653      O1664   1.262       .  A
N1655      O1661   1.262       .  A
N1655      O1662   1.262       .  A
C1665      C1666   1.399       .  A
C1665      C1670   1.393       .  A
C1665      H1675   1.087       .  S
C1666      C1671   1.480       .  S
C1666      C1667   1.410       .  A
C1667      C1668   1.405       .  A
C1667      N1672   1.429       .  S
C1668      C1669   1.406       .  A
C1668      H1673   1.086       .  S
C1669      C1670   1.414       .  A
C1670      N1674   1.430       .  S
C1671      C1676   1.408       .  A
C1671      C1680   1.401       .  A
N1672      O1687   1.262       .  A
N1672      O1688   1.262       .  A
N1674      O1685   1.262       .  A
N1674      O1686   1.262       .  A
C1676      C1677   1.396       .  A
C1676      N1681   1.430       .  S
C1677      C1678   1.406       .  A
C1677      H1682   1.085       .  S
C1678      C1679   1.418       .  A
C1679      C1680   1.402       .  A
C1679      N1683   1.429       .  S
C1680      H1684   1.086       .  S
N1681      O1691   1.262       .  A
N1681      O1692   1.262       .  A
N1683      O1689   1.262       .  A
N1683      O1690   1.262       .  A
C1693      C1694   1.403       .  A
C1693      C1698   1.408       .  A
C1693      H1703   1.085       .  S
C1694      C1699   1.486       .  S
C1694      C1695   1.409       .  A
C1695      C1696   1.398       .  A
C1695      N1700   1.432       .  S
C1696      C1697   1.408       .  A
C1696      H1701   1.084       .  S
C1697      C1698   1.418       .  A
C1698      N1702   1.428       .  S
C1699      C1704   1.409       .  A
C1699      C1708   1.403       .  A
N1700      O1715   1.262       .  A
N1700      O1716   1.262       .  A
N1702      O1713   1.262       .  A
N1702      O1714   1.262       .  A
C1704      C1705   1.400       .  A
C1704      N1709   1.431       .  S
C1705      C1706   1.407       .  A
C1705      H1710   1.085       .  S
C1706      C1707   1.415       .  A
C1707      C1708   1.405       .  A
C1707      N1711   1.428       .  S
C1708      H1712   1.085       .  S
N1709      O1719   1.262       .  A
N1709      O1720   1.262       .  A
N1711      O1717   1.262       .  A
N1711      O1718   1.262       .  A
C1721      C1722   1.400       .  A
C1721      C1726   1.399       .  A
C1721      H1731   1.085       .  S
C1722      C1727   1.483       .  S
C1722      C1723   1.409       .  A
C1723      C1724   1.405       .  A
C1723      N1728   1.429       .  S
C1724      C1725   1.407       .  A
C1724      H1729   1.085       .  S
C1725      C1726   1.416       .  A
C1726      N1730   1.429       .  S
C1727      C1732   1.408       .  A
C1727      C1736   1.400       .  A
N1728      O1743   1.262       .  A
N1728      O1744   1.262       .  A
N1730      O1741   1.262       .  A
N1730      O1742   1.262       .  A
C1732      C1733   1.402       .  A
C1732      N1737   1.428       .  S
C1733      C1734   1.407       .  A
C1733      H1738   1.085       .  S
C1734      C1735   1.419       .  A
C1735      C1736   1.402       .  A
C1735      N1739   1.429       .  S
C1736      H1740   1.085       .  S
N1737      O1747   1.262       .  A
N1737      O1748   1.262       .  A
N1739      O1745   1.262       .  A
N1739      O1746   1.262       .  A
C1749      C1750   1.400       .  A
C1749      C1754   1.400       .  A
C1749      H1759   1.086       .  S
C1750      C1755   1.478       .  S
C1750      C1751   1.408       .  A
C1751      C1752   1.402       .  A
C1751      N1756   1.428       .  S
C1752      C1753   1.405       .  A
C1752      H1757   1.085       .  S
C1753      C1754   1.415       .  A
C1754      N1758   1.429       .  S
C1755      C1760   1.408       .  A
C1755      C1764   1.397       .  A
N1756      O1771   1.262       .  A
N1756      O1772   1.262       .  A
N1758      O1769   1.262       .  A
N1758      O1770   1.262       .  A
C1760      C1761   1.403       .  A
C1760      N1765   1.428       .  S
C1761      C1762   1.408       .  A
C1761      H1766   1.085       .  S
C1762      C1763   1.419       .  A
C1763      C1764   1.397       .  A
C1763      N1767   1.429       .  S
C1764      H1768   1.086       .  S
N1765      O1775   1.262       .  A
N1765      O1776   1.262       .  A
N1767      O1773   1.261       .  A
N1767      O1774   1.262       .  A
C1777      C1778   1.403       .  A
C1777      C1782   1.404       .  A
C1777      H1787   1.085       .  S
C1778      C1783   1.478       .  S
C1778      C1779   1.405       .  A
C1779      C1780   1.397       .  A
C1779      N1784   1.428       .  S
C1780      C1781   1.406       .  A
C1780      H1785   1.085       .  S
C1781      C1782   1.414       .  A
C1782      N1786   1.430       .  S
C1783      C1788   1.402       .  A
C1783      C1792   1.399       .  A
N1784      O1799   1.262       .  A
N1784      O1800   1.262       .  A
N1786      O1797   1.262       .  A
N1786      O1798   1.262       .  A
C1788      C1789   1.397       .  A
C1788      N1793   1.429       .  S
C1789      C1790   1.413       .  A
C1789      H1794   1.084       .  S
C1790      C1791   1.418       .  A
C1791      C1792   1.406       .  A
C1791      N1795   1.427       .  S
C1792      H1796   1.085       .  S
N1793      O1803   1.262       .  A
N1793      O1804   1.262       .  A
N1795      O1801   1.262       .  A
N1795      O1802   1.263       .  A
C1805      C1806   1.404       .  A
C1805      C1810   1.406       .  A
C1805      H1815   1.085       .  S
C1806      C1811   1.479       .  S
C1806      C1807   1.403       .  A
C1807      C1808   1.396       .  A
C1807      N1812   1.429       .  S
C1808      C1809   1.410       .  A
C1808      H1813   1.085       .  S
C1809      C1810   1.415       .  A
C1810      N1814   1.429       .  S
C1811      C1816   1.402       .  A
C1811      C1820   1.403       .  A
N1812      O1827   1.262       .  A
N1812      O1828   1.262       .  A
N1814      O1825   1.262       .  A
N1814      O1826   1.262       .  A
C1816      C1817   1.395       .  A
C1816      N1821   1.429       .  S
C1817      C1818   1.411       .  A
C1817      H1822   1.085       .  S
C1818      C1819   1.418   1_545  A
C1819      C1820   1.409   1_565  A
C1819      N1823   1.431       .  S
C1820      H1824   1.085       .  S
N1821      O1831   1.262       .  A
N1821      O1832   1.262       .  A
N1823      O1829   1.262       .  A
N1823      O1830   1.262       .  A
C1833      C1834   1.404       .  A
C1833      C1838   1.404       .  A
C1833      H1843   1.085       .  S
C1834      C1839   1.483       .  S
C1834      C1835   1.410       .  A
C1835      C1836   1.395       .  A
C1835      N1840   1.430       .  S
C1836      C1837   1.402       .  A
C1836      H1841   1.086       .  S
C1837      C1838   1.414       .  A
C1838      N1842   1.430       .  S
C1839      C1844   1.410       .  A
C1839      C1848   1.403       .  A
N1840      O1855   1.262       .  A
N1840      O1856   1.262       .  A
N1842      O1853   1.262       .  A
N1842      O1854   1.262       .  A
C1844      C1845   1.403       .  A
C1844      N1849   1.429       .  S
C1845      C1846   1.403       .  A
C1845      H1850   1.087       .  S
C1846      C1847   1.409       .  A
C1847      C1848   1.398       .  A
C1847      N1851   1.431       .  S
C1848      H1852   1.087       .  S
N1849      O1859   1.262       .  A
N1849      O1860   1.262       .  A
N1851      O1857   1.262       .  A
N1851      O1858   1.262       .  A
C1861      C1862   1.401       .  A
C1861      C1866   1.399       .  A
C1861      H1871   1.085       .  S
C1862      C1867   1.468       .  S
C1862      C1863   1.404       .  A
C1863      C1864   1.395       .  A
C1863      N1868   1.429       .  S
C1864      C1865   1.406       .  A
C1864      H1869   1.086       .  S
C1865      C1866   1.409       .  A
C1866      N1870   1.429       .  S
C1867      C1872   1.402       .  A
C1867      C1876   1.396       .  A
N1868      O1883   1.262       .  A
N1868      O1884   1.262       .  A
N1870      O1881   1.262       .  A
N1870      O1882   1.262       .  A
C1872      C1873   1.393       .  A
C1872      N1877   1.429       .  S
C1873      C1874   1.409       .  A
C1873      H1878   1.085       .  S
C1874      C1875   1.419       .  A
C1875      C1876   1.402       .  A
C1875      N1879   1.425       .  S
C1876      H1880   1.086       .  S
N1877      O1887   1.262       .  A
N1877      O1888   1.262       .  A
N1879      O1885   1.261       .  A
N1879      O1886   1.262       .  A
C1889      C1890   1.402       .  A
C1889      C1894   1.404       .  A
C1889      H1899   1.086       .  S
C1890      C1895   1.478       .  S
C1890      C1891   1.406       .  A
C1891      C1892   1.399       .  A
C1891      N1896   1.429       .  S
C1892      C1893   1.406       .  A
C1892      H1897   1.086   1_455  S
C1893      C1894   1.413       .  A
C1894      N1898   1.428       .  S
C1895      C1900   1.405       .  A
C1895      C1904   1.401       .  A
N1896      O1911   1.262   1_455  A
N1896      O1912   1.262       .  A
N1898      O1909   1.262       .  A
N1898      O1910   1.262       .  A
C1900      C1901   1.397       .  A
C1900      N1905   1.429       .  S
C1901      C1902   1.409       .  A
C1901      H1906   1.085       .  S
C1902      C1903   1.418       .  A
C1903      C1904   1.405       .  A
C1903      N1907   1.429       .  S
C1904      H1908   1.085       .  S
N1905      O1915   1.262       .  A
N1905      O1916   1.262       .  A
N1907      O1913   1.262       .  A
N1907      O1914   1.262       .  A
C1917      C1918   1.401       .  A
C1917      C1922   1.399       .  A
C1917      H1927   1.085       .  S
C1918      C1923   1.474       .  S
C1918      C1919   1.404       .  A
C1919      C1920   1.399       .  A
C1919      N1924   1.429       .  S
C1920      C1921   1.409       .  A
C1920      H1925   1.085       .  S
C1921      C1922   1.414       .  A
C1922      N1926   1.429       .  S
C1923      C1928   1.405       .  A
C1923      C1932   1.401       .  A
N1924      O1939   1.262       .  A
N1924      O1940   1.262       .  A
N1926      O1937   1.262       .  A
N1926      O1938   1.262       .  A
C1928      C1929   1.394       .  A
C1928      N1933   1.429       .  S
C1929      C1930   1.403       .  A
C1929      H1934   1.086       .  S
C1930      C1931   1.415       .  A
C1931      C1932   1.404       .  A
C1931      N1935   1.429       .  S
C1932      H1936   1.086       .  S
N1933      O1943   1.262       .  A
N1933      O1944   1.262       .  A
N1935      O1941   1.262       .  A
N1935      O1942   1.262       .  A
C1945      C1946   1.399       .  A
C1945      C1950   1.395       .  A
C1945      H1955   1.087       .  S
C1946      C1951   1.481       .  S
C1946      C1947   1.409       .  A
C1947      C1948   1.405       .  A
C1947      N1952   1.428       .  S
C1948      C1949   1.406       .  A
C1948      H1953   1.086       .  S
C1949      C1950   1.414       .  A
C1950      N1954   1.430       .  S
C1951      C1956   1.407       .  A
C1951      C1960   1.402       .  A
N1952      O1967   1.262       .  A
N1952      O1968   1.262       .  A
N1954      O1965   1.262       .  A
N1954      O1966   1.262       .  A
C1956      C1957   1.396       .  A
C1956      N1961   1.429       .  S
C1957      C1958   1.408       .  A
C1957      H1962   1.084       .  S
C1958      C1959   1.419       .  A
C1959      C1960   1.404       .  A
C1959      N1963   1.429       .  S
C1960      H1964   1.085       .  S
N1961      O1971   1.262       .  A
N1961      O1972   1.262       .  A
N1963      O1969   1.262       .  A
N1963      O1970   1.262       .  A
C1973      C1974   1.402       .  A
C1973      C1978   1.406       .  A
C1973      H1983   1.085       .  S
C1974      C1979   1.477       .  S
C1974      C1975   1.405       .  A
C1975      C1976   1.395       .  A
C1975      N1980   1.429       .  S
C1976      C1977   1.406       .  A
C1976      H1981   1.085       .  S
C1977      C1978   1.416       .  A
C1978      N1982   1.429       .  S
C1979      C1984   1.404       .  A
C1979      C1988   1.401       .  A
N1980      O1995   1.262       .  A
N1980      O1996   1.262       .  A
N1982      O1993   1.262       .  A
N1982      O1994   1.262       .  A
C1984      C1985   1.397       .  A
C1984      N1989   1.429       .  S
C1985      C1986   1.409       .  A
C1985      H1990   1.085       .  S
C1986      C1987   1.415   1_455  A
C1987      C1988   1.405   1_655  A
C1987      N1991   1.429       .  S
C1988      H1992   1.085       .  S
N1989      O1999   1.262       .  A
N1989      O2000   1.262       .  A
N1991      O1997   1.262       .  A
N1991      O1998   1.262       .  A
C2001      C2002   1.400       .  A
C2001      C2006   1.399       .  A
C2001      H2011   1.085       .  S
C2002      C2007   1.485       .  S
C2002      C2003   1.409       .  A
C2003      C2004   1.405       .  A
C2003      N2008   1.430       .  S
C2004      C2005   1.410       .  A
C2004      H2009   1.084       .  S
C2005      C2006   1.419       .  A
C2006      N2010   1.429       .  S
C2007      C2012   1.410       .  A
C2007      C2016   1.401       .  A
N2008      O2023   1.262       .  A
N2008      O2024   1.262       .  A
N2010      O2021   1.262       .  A
N2010      O2022   1.262       .  A
C2012      C2013   1.403       .  A
C2012      N2017   1.429       .  S
C2013      C2014   1.407       .  A
C2013      H2018   1.085       .  S
C2014      C2015   1.417       .  A
C2015      C2016   1.401       .  A
C2015      N2019   1.429       .  S
C2016      H2020   1.086       .  S
N2017      O2027   1.262       .  A
N2017      O2028   1.262       .  A
N2019      O2025   1.262       .  A
N2019      O2026   1.262       .  A
C2029      C2030   1.400       .  A
C2029      C2034   1.404       .  A
C2029      H2039   1.085       .  S
C2030      C2035   1.487       .  S
C2030      C2031   1.407       .  A
C2031      C2032   1.405       .  A
C2031      N2036   1.429       .  S
C2032      C2033   1.413       .  A
C2032      H2037   1.084       .  S
C2033      C2034   1.420       .  A
C2034      N2038   1.428       .  S
C2035      C2040   1.407       .  A
C2035      C2044   1.401       .  A
N2036      O2051   1.262       .  A
N2036      O2052   1.262       .  A
N2038      O2049   1.262       .  A
N2038      O2050   1.262       .  A
C2040      C2041   1.404       .  A
C2040      N2045   1.429       .  S
C2041      C2042   1.411       .  A
C2041      H2046   1.084       .  S
C2042      C2043   1.419       .  A
C2043      C2044   1.405       .  A
C2043      N2047   1.430       .  S
C2044      H2048   1.085       .  S
N2045      O2055   1.262       .  A
N2045      O2056   1.262       .  A
N2047      O2053   1.262       .  A
N2047      O2054   1.262       .  A
C2057      C2058   1.400       .  A
C2057      C2062   1.400       .  A
C2057      H2067   1.087       .  S
C2058      C2063   1.482       .  S
C2058      C2059   1.408       .  A
C2059      C2060   1.400       .  A
C2059      N2064   1.429       .  S
C2060      C2061   1.408       .  A
C2060      H2065   1.086       .  S
C2061      C2062   1.419       .  A
C2062      N2066   1.429       .  S
C2063      C2068   1.407       .  A
C2063      C2072   1.401       .  A
N2064      O2079   1.262       .  A
N2064      O2080   1.262       .  A
N2066      O2077   1.262       .  A
N2066      O2078   1.262       .  A
C2068      C2069   1.396       .  A
C2068      N2073   1.429       .  S
C2069      C2070   1.409       .  A
C2069      H2074   1.090       .  S
C2070      C2071   1.418       .  A
C2071      C2072   1.403       .  A
C2071      N2075   1.428       .  S
C2072      H2076   1.089       .  S
N2073      O2083   1.262       .  A
N2073      O2084   1.262       .  A
N2075      O2081   1.262       .  A
N2075      O2082   1.262       .  A
C2085      C2086   1.403       .  A
C2085      C2090   1.404       .  A
C2085      H2095   1.088       .  S
C2086      C2091   1.485       .  S
C2086      C2087   1.408       .  A
C2087      C2088   1.397       .  A
C2087      N2092   1.429       .  S
C2088      C2089   1.408       .  A
C2088      H2093   1.088       .  S
C2089      C2090   1.416       .  A
C2090      N2094   1.427       .  S
C2091      C2096   1.408       .  A
C2091      C2100   1.402       .  A
N2092      O2107   1.262       .  A
N2092      O2108   1.262       .  A
N2094      O2105   1.262       .  A
N2094      O2106   1.262       .  A
C2096      C2097   1.399       .  A
C2096      N2101   1.429       .  S
C2097      C2098   1.408       .  A
C2097      H2102   1.086       .  S
C2098      C2099   1.417       .  A
C2099      C2100   1.402       .  A
C2099      N2103   1.429       .  S
C2100      H2104   1.086       .  S
N2101      O2111   1.262       .  A
N2101      O2112   1.262       .  A
N2103      O2109   1.262       .  A
N2103      O2110   1.262       .  A
C2113      C2114   1.398       .  A
C2113      C2118   1.406       .  A
C2113      H2123   1.085       .  S
C2114      C2119   1.483       .  S
C2114      C2115   1.404       .  A
C2115      C2116   1.403       .  A
C2115      N2120   1.428       .  S
C2116      C2117   1.413       .  A
C2116      H2121   1.084       .  S
C2117      C2118   1.421       .  A
C2118      N2122   1.427       .  S
C2119      C2124   1.405       .  A
C2119      C2128   1.398       .  A
N2120      O2135   1.262       .  A
N2120      O2136   1.262       .  A
N2122      O2133   1.262       .  A
N2122      O2134   1.262       .  A
C2124      C2125   1.403       .  A
C2124      N2129   1.429       .  S
C2125      C2126   1.413       .  A
C2125      H2130   1.085       .  S
C2126      C2127   1.421       .  A
C2127      C2128   1.405       .  A
C2127      N2131   1.430       .  S
C2128      H2132   1.086       .  S
N2129      O2139   1.262       .  A
N2129      O2140   1.262       .  A
N2131      O2137   1.262       .  A
N2131      O2138   1.262       .  A
C2141      C2142   1.401       .  A
C2141      C2146   1.403       .  A
C2141      H2151   1.085       .  S
C2142      C2147   1.480       .  S
C2142      C2143   1.406       .  A
C2143      C2144   1.400       .  A
C2143      N2148   1.429       .  S
C2144      C2145   1.409       .  A
C2144      H2149   1.084       .  S
C2145      C2146   1.417       .  A
C2146      N2150   1.429       .  S
C2147      C2152   1.406       .  A
C2147      C2156   1.399       .  A
N2148      O2163   1.262       .  A
N2148      O2164   1.262       .  A
N2150      O2161   1.262       .  A
N2150      O2162   1.262       .  A
C2152      C2153   1.400       .  A
C2152      N2157   1.429       .  S
C2153      C2154   1.410       .  A
C2153      H2158   1.085       .  S
C2154      C2155   1.419       .  A
C2155      C2156   1.404       .  A
C2155      N2159   1.429       .  S
C2156      H2160   1.086       .  S
N2157      O2167   1.262       .  A
N2157      O2168   1.262       .  A
N2159      O2165   1.262       .  A
N2159      O2166   1.262       .  A
C2169      C2170   1.404       .  A
C2169      C2174   1.403       .  A
C2169      H2179   1.085       .  S
C2170      C2175   1.494       .  S
C2170      C2171   1.414       .  A
C2171      C2172   1.403       .  A
C2171      N2176   1.429       .  S
C2172      C2173   1.404       .  A
C2172      H2177   1.085       .  S
C2173      C2174   1.416       .  A
C2174      N2178   1.429       .  S
C2175      C2180   1.412       .  A
C2175      C2184   1.400       .  A
N2176      O2191   1.262       .  A
N2176      O2192   1.261       .  A
N2178      O2189   1.262       .  A
N2178      O2190   1.262       .  A
C2180      C2181   1.405       .  A
C2180      N2185   1.429       .  S
C2181      C2182   1.409       .  A
C2181      H2186   1.085       .  S
C2182      C2183   1.421       .  A
C2183      C2184   1.402       .  A
C2183      N2187   1.427       .  S
C2184      H2188   1.086       .  S
N2185      O2195   1.262       .  A
N2185      O2196   1.262       .  A
N2187      O2193   1.262       .  A
N2187      O2194   1.262       .  A
C2197      C2198   1.399   1_556  A
C2197      C2202   1.403       .  A
C2197      H2207   1.085       .  S
C2198      C2203   1.483       .  S
C2198      C2199   1.407       .  A
C2199      C2200   1.401       .  A
C2199      N2204   1.430       .  S
C2200      C2201   1.411       .  A
C2200      H2205   1.084       .  S
C2201      C2202   1.419   1_554  A
C2202      N2206   1.429       .  S
C2203      C2208   1.406       .  A
C2203      C2212   1.399   1_554  A
N2204      O2219   1.262       .  A
N2204      O2220   1.262       .  A
N2206      O2217   1.262       .  A
N2206      O2218   1.262       .  A
C2208      C2209   1.401       .  A
C2208      N2213   1.431       .  S
C2209      C2210   1.412       .  A
C2209      H2214   1.084       .  S
C2210      C2211   1.418   1_554  A
C2211      C2212   1.402       .  A
C2211      N2215   1.426       .  S
C2212      H2216   1.085       .  S
N2213      O2223   1.262       .  A
N2213      O2224   1.262       .  A
N2215      O2221   1.262       .  A
N2215      O2222   1.262       .  A
C2225      C2226   1.401       .  A
C2225      C2230   1.402       .  A
C2225      H2235   1.085       .  S
C2226      C2231   1.488       .  S
C2226      C2227   1.409   1_545  A
C2227      C2228   1.402       .  A
C2227      N2232   1.429       .  S
C2228      C2229   1.410   1_565  A
C2228      H2233   1.084       .  S
C2229      C2230   1.420       .  A
C2230      N2234   1.429       .  S
C2231      C2236   1.408       .  A
C2231      C2240   1.403       .  A
N2232      O2247   1.262       .  A
N2232      O2248   1.262       .  A
N2234      O2245   1.262       .  A
N2234      O2246   1.262       .  A
C2236      C2237   1.400       .  A
C2236      N2241   1.429   1_545  S
C2237      C2238   1.408       .  A
C2237      H2242   1.085       .  S
C2238      C2239   1.417       .  A
C2239      C2240   1.406       .  A
C2239      N2243   1.429       .  S
C2240      H2244   1.085       .  S
N2241      O2251   1.262   1_565  A
N2241      O2252   1.262       .  A
N2243      O2249   1.262       .  A
N2243      O2250   1.262   1_545  A
C2253      C2254   1.402       .  A
C2253      C2258   1.404       .  A
C2253      H2263   1.086       .  S
C2254      C2259   1.485       .  S
C2254      C2255   1.407       .  A
C2255      C2256   1.399       .  A
C2255      N2260   1.429       .  S
C2256      C2257   1.408       .  A
C2256      H2261   1.085       .  S
C2257      C2258   1.415       .  A
C2258      N2262   1.428       .  S
C2259      C2264   1.408       .  A
C2259      C2268   1.400   1_455  A
N2260      O2275   1.262       .  A
N2260      O2276   1.262       .  A
N2262      O2273   1.262       .  A
N2262      O2274   1.262   1_455  A
C2264      C2265   1.399       .  A
C2264      N2269   1.429       .  S
C2265      C2266   1.410       .  A
C2265      H2270   1.085       .  S
C2266      C2267   1.420   1_455  A
C2267      C2268   1.403       .  A
C2267      N2271   1.428       .  S
C2268      H2272   1.085       .  S
N2269      O2279   1.262       .  A
N2269      O2280   1.262       .  A
N2271      O2277   1.262       .  A
N2271      O2278   1.262       .  A
C2281      C2282   1.402       .  A
C2281      C2286   1.403       .  A
C2281      H2291   1.085       .  S
C2282      C2287   1.491       .  S
C2282      C2283   1.410       .  A
C2283      C2284   1.405       .  A
C2283      N2288   1.429       .  S
C2284      C2285   1.408       .  A
C2284      H2289   1.085       .  S
C2285      C2286   1.417       .  A
C2286      N2290   1.429       .  S
C2287      C2292   1.409       .  A
C2287      C2296   1.402       .  A
N2288      O2303   1.262       .  A
N2288      O2304   1.262       .  A
N2290      O2301   1.262       .  A
N2290      O2302   1.262       .  A
C2292      C2293   1.403       .  A
C2292      N2297   1.429       .  S
C2293      C2294   1.409       .  A
C2293      H2298   1.085       .  S
C2294      C2295   1.421       .  A
C2295      C2296   1.405       .  A
C2295      N2299   1.429       .  S
C2296      H2300   1.085       .  S
N2297      O2307   1.262       .  A
N2297      O2308   1.262       .  A
N2299      O2305   1.262       .  A
N2299      O2306   1.262       .  A
C2309      C2310   1.402       .  A
C2309      C2314   1.402       .  A
C2309      H2319   1.085       .  S
C2310      C2315   1.487       .  S
C2310      C2311   1.409       .  A
C2311      C2312   1.401       .  A
C2311      N2316   1.429       .  S
C2312      C2313   1.408       .  A
C2312      H2317   1.084       .  S
C2313      C2314   1.417       .  A
C2314      N2318   1.429       .  S
C2315      C2320   1.409       .  A
C2315      C2324   1.401       .  A
N2316      O2331   1.262       .  A
N2316      O2332   1.262       .  A
N2318      O2329   1.262       .  A
N2318      O2330   1.262       .  A
C2320      C2321   1.400       .  A
C2320      N2325   1.429       .  S
C2321      C2322   1.407       .  A
C2321      H2326   1.084       .  S
C2322      C2323   1.419       .  A
C2323      C2324   1.401       .  A
C2323      N2327   1.429       .  S
C2324      H2328   1.085       .  S
N2325      O2335   1.262       .  A
N2325      O2336   1.262       .  A
N2327      O2333   1.262       .  A
N2327      O2334   1.262       .  A
C2337      C2338   1.403       .  A
C2337      C2342   1.404       .  A
C2337      H2347   1.085       .  S
C2338      C2343   1.489       .  S
C2338      C2339   1.411   1_455  A
C2339      C2340   1.402       .  A
C2339      N2344   1.429       .  S
C2340      C2341   1.405   1_655  A
C2340      H2345   1.085       .  S
C2341      C2342   1.414       .  A
C2342      N2346   1.429       .  S
C2343      C2348   1.408       .  A
C2343      C2352   1.399   1_455  A
N2344      O2359   1.262       .  A
N2344      O2360   1.262       .  A
N2346      O2357   1.262       .  A
N2346      O2358   1.262       .  A
C2348      C2349   1.404       .  A
C2348      N2353   1.428       .  S
C2349      C2350   1.411       .  A
C2349      H2354   1.085       .  S
C2350      C2351   1.422   1_455  A
C2351      C2352   1.403       .  A
C2351      N2355   1.427       .  S
C2352      H2356   1.086       .  S
N2353      O2363   1.262       .  A
N2353      O2364   1.262       .  A
N2355      O2361   1.262       .  A
N2355      O2362   1.262       .  A
C2365      C2366   1.401       .  A
C2365      C2370   1.399       .  A
C2365      H2375   1.085       .  S
C2366      C2371   1.480       .  S
C2366      C2367   1.409       .  A
C2367      C2368   1.400       .  A
C2367      N2372   1.430       .  S
C2368      C2369   1.409       .  A
C2368      H2373   1.084       .  S
C2369      C2370   1.416       .  A
C2370      N2374   1.429       .  S
C2371      C2376   1.409       .  A
C2371      C2380   1.401       .  A
N2372      O2387   1.262       .  A
N2372      O2388   1.262       .  A
N2374      O2385   1.262       .  A
N2374      O2386   1.262       .  A
C2376      C2377   1.403   1_565  A
C2376      N2381   1.430   1_565  S
C2377      C2378   1.407   1_545  A
C2377      H2382   1.085       .  S
C2378      C2379   1.412       .  A
C2379      C2380   1.398       .  A
C2379      N2383   1.430       .  S
C2380      H2384   1.086       .  S
N2381      O2391   1.262       .  A
N2381      O2392   1.262       .  A
N2383      O2389   1.262       .  A
N2383      O2390   1.262       .  A
C2393      C2394   1.404       .  A
C2393      C2398   1.404       .  A
C2393      H2403   1.085       .  S
C2394      C2399   1.488       .  S
C2394      C2395   1.412       .  A
C2395      C2396   1.399       .  A
C2395      N2400   1.430       .  S
C2396      C2397   1.403       .  A
C2396      H2401   1.086       .  S
C2397      C2398   1.414       .  A
C2398      N2402   1.429       .  S
C2399      C2404   1.413       .  A
C2399      C2408   1.401       .  A
N2400      O2415   1.262       .  A
N2400      O2416   1.262       .  A
N2402      O2413   1.262       .  A
N2402      O2414   1.262       .  A
C2404      C2405   1.405       .  A
C2404      N2409   1.428       .  S
C2405      C2406   1.404       .  A
C2405      H2410   1.086       .  S
C2406      C2407   1.414       .  A
C2407      C2408   1.397       .  A
C2407      N2411   1.430   1_455  S
C2408      H2412   1.086       .  S
N2409      O2419   1.262       .  A
N2409      O2420   1.262       .  A
N2411      O2417   1.262       .  A
N2411      O2418   1.262       .  A
C2421      C2422   1.399       .  A
C2421      C2426   1.397       .  A
C2421      H2431   1.086       .  S
C2422      C2427   1.482       .  S
C2422      C2423   1.408       .  A
C2423      C2424   1.406       .  A
C2423      N2428   1.428       .  S
C2424      C2425   1.408       .  A
C2424      H2429   1.085       .  S
C2425      C2426   1.416       .  A
C2426      N2430   1.430       .  S
C2427      C2432   1.405       .  A
C2427      C2436   1.403       .  A
N2428      O2443   1.262       .  A
N2428      O2444   1.262       .  A
N2430      O2441   1.262       .  A
N2430      O2442   1.262       .  A
C2432      C2433   1.394       .  A
C2432      N2437   1.429       .  S
C2433      C2434   1.409       .  A
C2433      H2438   1.085       .  S
C2434      C2435   1.419       .  A
C2435      C2436   1.409       .  A
C2435      N2439   1.428       .  S
C2436      H2440   1.085       .  S
N2437      O2447   1.262       .  A
N2437      O2448   1.262       .  A
N2439      O2445   1.262       .  A
N2439      O2446   1.262       .  A
C2449      C2450   1.399       .  A
C2449      C2454   1.399       .  A
C2449      H2459   1.085       .  S
C2450      C2455   1.485       .  S
C2450      C2451   1.412       .  A
C2451      C2452   1.406       .  A
C2451      N2456   1.429       .  S
C2452      C2453   1.404       .  A
C2452      H2457   1.085       .  S
C2453      C2454   1.415       .  A
C2454      N2458   1.430       .  S
C2455      C2460   1.407       .  A
C2455      C2464   1.404       .  A
N2456      O2471   1.262       .  A
N2456      O2472   1.262       .  A
N2458      O2469   1.262       .  A
N2458      O2470   1.262       .  A
C2460      C2461   1.399       .  A
C2460      N2465   1.430       .  S
C2461      C2462   1.409       .  A
C2461      H2466   1.085       .  S
C2462      C2463   1.416       .  A
C2463      C2464   1.407       .  A
C2463      N2467   1.428       .  S
C2464      H2468   1.085       .  S
N2465      O2475   1.262       .  A
N2465      O2476   1.262       .  A
N2467      O2473   1.262       .  A
N2467      O2474   1.262       .  A
C2477      C2478   1.403       .  A
C2477      C2482   1.407       .  A
C2477      H2487   1.085       .  S
C2478      C2483   1.486       .  S
C2478      C2479   1.409       .  A
C2479      C2480   1.396       .  A
C2479      N2484   1.430       .  S
C2480      C2481   1.407       .  A
C2480      H2485   1.085       .  S
C2481      C2482   1.417       .  A
C2482      N2486   1.428       .  S
C2483      C2488   1.411       .  A
C2483      C2492   1.401       .  A
N2484      O2499   1.262       .  A
N2484      O2500   1.262       .  A
N2486      O2497   1.262       .  A
N2486      O2498   1.262       .  A
C2488      C2489   1.405       .  A
C2488      N2493   1.428       .  S
C2489      C2490   1.405       .  A
C2489      H2494   1.085       .  S
C2490      C2491   1.414       .  A
C2491      C2492   1.397       .  A
C2491      N2495   1.430       .  S
C2492      H2496   1.086       .  S
N2493      O2503   1.262       .  A
N2493      O2504   1.262       .  A
N2495      O2501   1.262       .  A
N2495      O2502   1.262       .  A
C2505      C2506   1.402       .  A
C2505      C2510   1.397       .  A
C2505      H2515   1.086       .  S
C2506      C2511   1.486       .  S
C2506      C2507   1.411       .  A
C2507      C2508   1.406   1_565  A
C2507      N2512   1.429   1_565  S
C2508      C2509   1.407       .  A
C2508      H2513   1.086       .  S
C2509      C2510   1.412   1_545  A
C2510      N2514   1.429       .  S
C2511      C2516   1.410       .  A
C2511      C2520   1.402       .  A
N2512      O2527   1.262   1_545  A
N2512      O2528   1.262       .  A
N2514      O2525   1.262       .  A
N2514      O2526   1.262       .  A
C2516      C2517   1.404       .  A
C2516      N2521   1.429       .  S
C2517      C2518   1.409       .  A
C2517      H2522   1.084       .  S
C2518      C2519   1.417       .  A
C2519      C2520   1.399       .  A
C2519      N2523   1.429       .  S
C2520      H2524   1.085       .  S
N2521      O2531   1.262       .  A
N2521      O2532   1.262   1_565  A
N2523      O2529   1.262       .  A
N2523      O2530   1.262       .  A
C2533      C2534   1.402       .  A
C2533      C2538   1.405       .  A
C2533      H2543   1.085       .  S
C2534      C2539   1.477       .  S
C2534      C2535   1.404       .  A
C2535      C2536   1.396       .  A
C2535      N2540   1.429       .  S
C2536      C2537   1.409       .  A
C2536      H2541   1.084       .  S
C2537      C2538   1.417       .  A
C2538      N2542   1.429       .  S
C2539      C2544   1.408       .  A
C2539      C2548   1.399       .  A
N2540      O2555   1.262       .  A
N2540      O2556   1.262       .  A
N2542      O2553   1.262       .  A
N2542      O2554   1.262       .  A
C2544      C2545   1.405       .  A
C2544      N2549   1.428       .  S
C2545      C2546   1.405       .  A
C2545      H2550   1.086       .  S
C2546      C2547   1.409       .  A
C2547      C2548   1.397       .  A
C2547      N2551   1.430       .  S
C2548      H2552   1.087       .  S
N2549      O2559   1.262       .  A
N2549      O2560   1.262       .  A
N2551      O2557   1.262       .  A
N2551      O2558   1.262       .  A
C2561      C2562   1.402       .  A
C2561      C2566   1.407       .  A
C2561      H2571   1.085       .  S
C2562      C2567   1.475       .  S
C2562      C2563   1.403       .  A
C2563      C2564   1.392       .  A
C2563      N2568   1.429       .  S
C2564      C2565   1.408       .  A
C2564      H2569   1.084       .  S
C2565      C2566   1.418       .  A
C2566      N2570   1.428       .  S
C2567      C2572   1.409       .  A
C2567      C2576   1.398       .  A
N2568      O2583   1.262       .  A
N2568      O2584   1.262       .  A
N2570      O2581   1.262       .  A
N2570      O2582   1.262       .  A
C2572      C2573   1.404       .  A
C2572      N2577   1.429       .  S
C2573      C2574   1.404       .  A
C2573      H2578   1.086       .  S
C2574      C2575   1.412       .  A
C2575      C2576   1.396       .  A
C2575      N2579   1.430       .  S
C2576      H2580   1.086       .  S
N2577      O2587   1.262       .  A
N2577      O2588   1.262       .  A
N2579      O2585   1.262       .  A
N2579      O2586   1.262       .  A
C2589      C2590   1.405       .  A
C2589      C2594   1.410       .  A
C2589      H2599   1.085       .  S
C2590      C2595   1.485       .  S
C2590      C2591   1.406       .  A
C2591      C2592   1.394       .  A
C2591      N2596   1.429       .  S
C2592      C2593   1.408       .  A
C2592      H2597   1.085       .  S
C2593      C2594   1.418       .  A
C2594      N2598   1.429       .  S
C2595      C2600   1.410       .  A
C2595      C2604   1.400       .  A
N2596      O2611   1.262       .  A
N2596      O2612   1.262       .  A
N2598      O2609   1.262       .  A
N2598      O2610   1.262       .  A
C2600      C2601   1.406       .  A
C2600      N2605   1.428       .  S
C2601      C2602   1.407       .  A
C2601      H2606   1.086       .  S
C2602      C2603   1.416       .  A
C2603      C2604   1.397       .  A
C2603      N2607   1.429       .  S
C2604      H2608   1.087       .  S
N2605      O2615   1.262       .  A
N2605      O2616   1.262       .  A
N2607      O2613   1.262       .  A
N2607      O2614   1.262       .  A
C2617      C2618   1.401   1_455  A
C2617      C2622   1.405       .  A
C2617      H2627   1.085       .  S
C2618      C2623   1.487       .  S
C2618      C2619   1.407       .  A
C2619      C2620   1.402       .  A
C2619      N2624   1.429       .  S
C2620      C2621   1.412       .  A
C2620      H2625   1.084       .  S
C2621      C2622   1.419   1_655  A
C2622      N2626   1.428       .  S
C2623      C2628   1.408       .  A
C2623      C2632   1.403       .  A
N2624      O2639   1.262       .  A
N2624      O2640   1.262       .  A
N2626      O2637   1.262       .  A
N2626      O2638   1.262       .  A
C2628      C2629   1.401       .  A
C2628      N2633   1.428       .  S
C2629      C2630   1.406       .  A
C2629      H2634   1.085       .  S
C2630      C2631   1.415       .  A
C2631      C2632   1.405       .  A
C2631      N2635   1.429       .  S
C2632      H2636   1.085       .  S
N2633      O2643   1.262   1_655  A
N2633      O2644   1.262       .  A
N2635      O2641   1.262   1_655  A
N2635      O2642   1.262       .  A
C2645      C2646   1.406       .  A
C2645      C2650   1.410       .  A
C2645      H2655   1.086       .  S
C2646      C2651   1.488       .  S
C2646      C2647   1.408       .  A
C2647      C2648   1.396       .  A
C2647      N2652   1.429       .  S
C2648      C2649   1.404       .  A
C2648      H2653   1.086       .  S
C2649      C2650   1.413       .  A
C2650      N2654   1.429       .  S
C2651      C2656   1.409       .  A
C2651      C2660   1.401       .  A
N2652      O2667   1.262       .  A
N2652      O2668   1.262       .  A
N2654      O2665   1.262       .  A
N2654      O2666   1.262       .  A
C2656      C2657   1.407       .  A
C2656      N2661   1.428       .  S
C2657      C2658   1.408       .  A
C2657      H2662   1.086       .  S
C2658      C2659   1.418       .  A
C2659      C2660   1.398       .  A
C2659      N2663   1.430       .  S
C2660      H2664   1.087       .  S
N2661      O2671   1.262       .  A
N2661      O2672   1.262       .  A
N2663      O2669   1.262       .  A
N2663      O2670   1.262       .  A
C2673      C2674   1.401       .  A
C2673      C2678   1.403       .  A
C2673      H2683   1.086       .  S
C2674      C2679   1.487   1_655  S
C2674      C2675   1.410   1_655  A
C2675      C2676   1.397       .  A
C2675      N2680   1.430       .  S
C2676      C2677   1.408   1_455  A
C2676      H2681   1.085       .  S
C2677      C2678   1.418       .  A
C2678      N2682   1.428       .  S
C2679      C2684   1.411   1_455  A
C2679      C2688   1.400       .  A
N2680      O2695   1.262       .  A
N2680      O2696   1.262       .  A
N2682      O2693   1.262       .  A
N2682      O2694   1.262       .  A
C2684      C2685   1.400       .  A
C2684      N2689   1.429       .  S
C2685      C2686   1.406   1_655  A
C2685      H2690   1.085       .  S
C2686      C2687   1.416       .  A
C2687      C2688   1.401       .  A
C2687      N2691   1.429       .  S
C2688      H2692   1.085       .  S
N2689      O2699   1.262       .  A
N2689      O2700   1.262       .  A
N2691      O2697   1.263       .  A
N2691      O2698   1.262       .  A
C2701      C2702   1.403       .  A
C2701      C2706   1.396       .  A
C2701      H2711   1.087       .  S
C2702      C2707   1.486       .  S
C2702      C2703   1.411       .  A
C2703      C2704   1.403       .  A
C2703      N2708   1.429       .  S
C2704      C2705   1.404       .  A
C2704      H2709   1.087       .  S
C2705      C2706   1.412       .  A
C2706      N2710   1.430       .  S
C2707      C2712   1.411       .  A
C2707      C2716   1.405       .  A
N2708      O2723   1.262   1_554  A
N2708      O2724   1.262       .  A
N2710      O2721   1.262       .  A
N2710      O2722   1.262       .  A
C2712      C2713   1.398   1_455  A
C2712      N2717   1.430   1_455  S
C2713      C2714   1.402   1_654  A
C2713      H2718   1.087       .  S
C2714      C2715   1.411       .  A
C2715      C2716   1.402   1_556  A
C2715      N2719   1.429       .  S
C2716      H2720   1.087   1_554  S
N2717      O2727   1.262       .  A
N2717      O2728   1.262       .  A
N2719      O2725   1.262       .  A
N2719      O2726   1.262       .  A
C2729      C2730   1.401   1_545  A
C2729      C2734   1.403       .  A
C2729      H2739   1.086       .  S
C2730      C2735   1.490       .  S
C2730      C2731   1.410       .  A
C2731      C2732   1.403       .  A
C2731      N2736   1.429       .  S
C2732      C2733   1.409       .  A
C2732      H2737   1.086       .  S
C2733      C2734   1.419   1_565  A
C2734      N2738   1.427       .  S
C2735      C2740   1.410       .  A
C2735      C2744   1.401   1_565  A
N2736      O2751   1.262       .  A
N2736      O2752   1.262       .  A
N2738      O2749   1.262       .  A
N2738      O2750   1.262       .  A
C2740      C2741   1.402       .  A
C2740      N2745   1.429       .  S
C2741      C2742   1.407       .  A
C2741      H2746   1.086       .  S
C2742      C2743   1.421   1_565  A
C2743      C2744   1.403       .  A
C2743      N2747   1.429       .  S
C2744      H2748   1.086       .  S
N2745      O2755   1.262       .  A
N2745      O2756   1.262       .  A
N2747      O2753   1.262   1_545  A
N2747      O2754   1.262       .  A
C2757      C2758   1.402       .  A
C2757      C2762   1.403       .  A
C2757      H2767   1.085       .  S
C2758      C2763   1.491       .  S
C2758      C2759   1.408       .  A
C2759      C2760   1.406       .  A
C2759      N2764   1.428       .  S
C2760      C2761   1.410       .  A
C2760      H2765   1.084       .  S
C2761      C2762   1.421       .  A
C2762      N2766   1.429       .  S
C2763      C2768   1.408       .  A
C2763      C2772   1.405       .  A
N2764      O2779   1.262       .  A
N2764      O2780   1.262       .  A
N2766      O2777   1.262       .  A
N2766      O2778   1.262       .  A
C2768      C2769   1.399       .  A
C2768      N2773   1.430       .  S
C2769      C2770   1.409       .  A
C2769      H2774   1.085       .  S
C2770      C2771   1.416       .  A
C2771      C2772   1.409       .  A
C2771      N2775   1.428       .  S
C2772      H2776   1.085       .  S
N2773      O2783   1.262       .  A
N2773      O2784   1.262       .  A
N2775      O2781   1.262       .  A
N2775      O2782   1.262       .  A
C2785      C2786   1.404       .  A
C2785      C2790   1.408       .  A
C2785      H2795   1.085       .  S
C2786      C2791   1.484       .  S
C2786      C2787   1.407       .  A
C2787      C2788   1.396       .  A
C2787      N2792   1.429       .  S
C2788      C2789   1.404       .  A
C2788      H2793   1.086       .  S
C2789      C2790   1.414       .  A
C2790      N2794   1.430       .  S
C2791      C2796   1.408       .  A
C2791      C2800   1.400       .  A
N2792      O2807   1.262       .  A
N2792      O2808   1.262       .  A
N2794      O2805   1.262       .  A
N2794      O2806   1.262       .  A
C2796      C2797   1.406       .  A
C2796      N2801   1.428       .  S
C2797      C2798   1.408       .  A
C2797      H2802   1.085       .  S
C2798      C2799   1.417       .  A
C2799      C2800   1.396       .  A
C2799      N2803   1.430       .  S
C2800      H2804   1.086       .  S
N2801      O2811   1.262       .  A
N2801      O2812   1.262       .  A
N2803      O2809   1.262       .  A
N2803      O2810   1.262       .  A
C2813      C2814   1.401       .  A
C2813      C2818   1.402       .  A
C2813      H2823   1.086       .  S
C2814      C2819   1.485       .  S
C2814      C2815   1.408   1_556  A
C2815      C2816   1.399       .  A
C2815      N2820   1.429       .  S
C2816      C2817   1.408   1_554  A
C2816      H2821   1.085       .  S
C2817      C2818   1.421       .  A
C2818      N2822   1.429       .  S
C2819      C2824   1.409       .  A
C2819      C2828   1.401   1_556  A
N2820      O2835   1.262       .  A
N2820      O2836   1.262       .  A
N2822      O2833   1.262       .  A
N2822      O2834   1.262       .  A
C2824      C2825   1.402       .  A
C2824      N2829   1.429       .  S
C2825      C2826   1.407   1_556  A
C2825      H2830   1.085       .  S
C2826      C2827   1.415       .  A
C2827      C2828   1.402       .  A
C2827      N2831   1.428       .  S
C2828      H2832   1.085       .  S
N2829      O2839   1.262       .  A
N2829      O2840   1.262       .  A
N2831      O2837   1.262       .  A
N2831      O2838   1.262       .  A
C2841      C2842   1.408   1_565  A
C2841      C2846   1.403       .  A
C2841      H2851   1.087       .  S
C2842      C2847   1.496       .  S
C2842      C2843   1.415       .  A
C2843      C2844   1.400   1_545  A
C2843      N2848   1.430       .  S
C2844      C2845   1.400       .  A
C2844      H2849   1.088   1_554  S
C2845      C2846   1.407       .  A
C2846      N2850   1.429       .  S
C2847      C2852   1.414       .  A
C2847      C2856   1.406       .  A
N2848      O2863   1.262   1_554  A
N2848      O2864   1.262       .  A
N2850      O2861   1.262       .  A
N2850      O2862   1.262       .  A
C2852      C2853   1.403       .  A
C2852      N2857   1.429       .  S
C2853      C2854   1.405       .  A
C2853      H2858   1.087       .  S
C2854      C2855   1.414       .  A
C2855      C2856   1.401       .  A
C2855      N2859   1.430       .  S
C2856      H2860   1.087       .  S
N2857      O2867   1.262   1_545  A
N2857      O2868   1.262   1_545  A
N2859      O2865   1.262       .  A
N2859      O2866   1.262       .  A
C2869      C2870   1.398   1_554  A
C2869      C2874   1.403       .  A
C2869      H2879   1.087       .  S
C2870      C2875   1.483       .  S
C2870      C2871   1.406       .  A
C2871      C2872   1.400       .  A
C2871      N2876   1.429       .  S
C2872      C2873   1.411       .  A
C2872      H2877   1.086       .  S
C2873      C2874   1.417   1_556  A
C2874      N2878   1.423       .  S
C2875      C2880   1.406       .  A
C2875      C2884   1.397   1_556  A
N2876      O2891   1.262       .  A
N2876      O2892   1.262       .  A
N2878      O2889   1.261   1_554  A
N2878      O2890   1.262       .  A
C2880      C2881   1.401       .  A
C2880      N2885   1.429       .  S
C2881      C2882   1.411       .  A
C2881      H2886   1.087       .  S
C2882      C2883   1.420   1_556  A
C2883      C2884   1.401       .  A
C2883      N2887   1.426       .  S
C2884      H2888   1.088       .  S
N2885      O2895   1.262       .  A
N2885      O2896   1.262       .  A
N2887      O2893   1.262       .  A
N2887      O2894   1.262       .  A
C2897      C2898   1.400       .  A
C2897      C2902   1.405       .  A
C2897      H2907   1.085       .  S
C2898      C2903   1.483       .  S
C2898      C2899   1.406       .  A
C2899      C2900   1.401       .  A
C2899      N2904   1.429       .  S
C2900      C2901   1.410       .  A
C2900      H2905   1.085       .  S
C2901      C2902   1.417       .  A
C2902      N2906   1.428       .  S
C2903      C2908   1.410       .  A
C2903      C2912   1.400       .  A
N2904      O2919   1.262       .  A
N2904      O2920   1.262       .  A
N2906      O2917   1.262       .  A
N2906      O2918   1.262       .  A
C2908      C2909   1.406       .  A
C2908      N2913   1.428       .  S
C2909      C2910   1.406       .  A
C2909      H2914   1.085       .  S
C2910      C2911   1.416       .  A
C2911      C2912   1.398       .  A
C2911      N2915   1.430       .  S
C2912      H2916   1.086       .  S
N2913      O2923   1.262       .  A
N2913      O2924   1.262       .  A
N2915      O2921   1.262       .  A
N2915      O2922   1.262       .  A
C2925      C2926   1.401       .  A
C2925      C2930   1.403       .  A
C2925      H2935   1.085       .  S
C2926      C2931   1.484       .  S
C2926      C2927   1.407   1_545  A
C2927      C2928   1.400       .  A
C2927      N2932   1.429       .  S
C2928      C2929   1.409   1_565  A
C2928      H2933   1.084       .  S
C2929      C2930   1.419       .  A
C2930      N2934   1.429       .  S
C2931      C2936   1.409       .  A
C2931      C2940   1.401   1_545  A
N2932      O2947   1.262       .  A
N2932      O2948   1.262   1_565  A
N2934      O2945   1.262       .  A
N2934      O2946   1.262       .  A
C2936      C2937   1.403       .  A
C2936      N2941   1.428       .  S
C2937      C2938   1.405       .  A
C2937      H2942   1.085       .  S
C2938      C2939   1.415   1_545  A
C2939      C2940   1.400       .  A
C2939      N2943   1.429       .  S
C2940      H2944   1.086       .  S
N2941      O2951   1.262       .  A
N2941      O2952   1.262       .  A
N2943      O2949   1.262       .  A
N2943      O2950   1.262       .  A
C2953      C2954   1.400       .  A
C2953      C2958   1.396       .  A
C2953      H2963   1.085       .  S
C2954      C2959   1.486       .  S
C2954      C2955   1.412   1_455  A
C2955      C2956   1.404       .  A
C2955      N2960   1.431       .  S
C2956      C2957   1.408       .  A
C2956      H2961   1.084       .  S
C2957      C2958   1.417   1_655  A
C2958      N2962   1.430       .  S
C2959      C2964   1.412       .  A
C2959      C2968   1.404       .  A
N2960      O2975   1.262       .  A
N2960      O2976   1.262       .  A
N2962      O2973   1.262       .  A
N2962      O2974   1.262   1_565  A
C2964      C2965   1.402       .  A
C2964      N2969   1.432       .  S
C2965      C2966   1.407       .  A
C2965      H2970   1.085       .  S
C2966      C2967   1.412       .  A
C2967      C2968   1.400       .  A
C2967      N2971   1.429       .  S
C2968      H2972   1.085       .  S
N2969      O2979   1.262       .  A
N2969      O2980   1.262       .  A
N2971      O2977   1.262       .  A
N2971      O2978   1.262       .  A
C2981      C2982   1.403       .  A
C2981      C2986   1.399       .  A
C2981      H2991   1.086       .  S
C2982      C2987   1.487       .  S
C2982      C2983   1.414       .  A
C2983      C2984   1.401   1_455  A
C2983      N2988   1.430       .  S
C2984      C2985   1.400       .  A
C2984      H2989   1.087       .  S
C2985      C2986   1.410   1_655  A
C2986      N2990   1.429   1_545  S
C2987      C2992   1.412       .  A
C2987      C2996   1.402       .  A
N2988      O3003   1.262   1_455  A
N2988      O3004   1.262       .  A
N2990      O3001   1.262       .  A
N2990      O3002   1.262   1_455  A
C2992      C2993   1.400       .  A
C2992      N2997   1.430       .  S
C2993      C2994   1.405       .  A
C2993      H2998   1.086       .  S
C2994      C2995   1.415       .  A
C2995      C2996   1.399       .  A
C2995      N2999   1.429       .  S
C2996      H3000   1.086       .  S
N2997      O3007   1.262       .  A
N2997      O3008   1.262       .  A
N2999      O3005   1.262       .  A
N2999      O3006   1.262       .  A
C3009      C3010   1.400       .  A
C3009      C3014   1.404       .  A
C3009      H3019   1.085       .  S
C3010      C3015   1.478       .  S
C3010      C3011   1.403   1_565  A
C3011      C3012   1.398       .  A
C3011      N3016   1.429       .  S
C3012      C3013   1.410   1_545  A
C3012      H3017   1.084       .  S
C3013      C3014   1.418       .  A
C3014      N3018   1.428       .  S
C3015      C3020   1.403       .  A
C3015      C3024   1.398   1_565  A
N3016      O3031   1.262       .  A
N3016      O3032   1.262       .  A
N3018      O3029   1.262       .  A
N3018      O3030   1.262       .  A
C3020      C3021   1.399       .  A
C3020      N3025   1.429       .  S
C3021      C3022   1.413       .  A
C3021      H3026   1.084       .  S
C3022      C3023   1.419   1_565  A
C3023      C3024   1.402       .  A
C3023      N3027   1.427       .  S
C3024      H3028   1.085       .  S
N3025      O3035   1.262       .  A
N3025      O3036   1.262       .  A
N3027      O3033   1.262       .  A
N3027      O3034   1.262       .  A
C3037      C3038   1.397       .  A
C3037      C3042   1.400       .  A
C3037      H3047   1.085       .  S
C3038      C3043   1.479       .  S
C3038      C3039   1.408       .  A
C3039      C3040   1.401       .  A
C3039      N3044   1.429       .  S
C3040      C3041   1.408       .  A
C3040      H3045   1.085       .  S
C3041      C3042   1.421       .  A
C3042      N3046   1.429       .  S
C3043      C3048   1.406       .  A
C3043      C3052   1.400       .  A
N3044      O3059   1.262       .  A
N3044      O3060   1.262       .  A
N3046      O3057   1.262       .  A
N3046      O3058   1.262       .  A
C3048      C3049   1.398       .  A
C3048      N3053   1.430       .  S
C3049      C3050   1.409       .  A
C3049      H3054   1.085       .  S
C3050      C3051   1.418       .  A
C3051      C3052   1.406       .  A
C3051      N3055   1.431       .  S
C3052      H3056   1.085       .  S
N3053      O3063   1.262       .  A
N3053      O3064   1.262       .  A
N3055      O3061   1.262       .  A
N3055      O3062   1.262       .  A
C3065      C3066   1.397       .  A
C3065      C3070   1.404       .  A
C3065      H3075   1.086       .  S
C3066      C3071   1.485       .  S
C3066      C3067   1.406       .  A
C3067      C3068   1.405       .  A
C3067      N3072   1.428       .  S
C3068      C3069   1.412       .  A
C3068      H3073   1.084       .  S
C3069      C3070   1.424       .  A
C3070      N3074   1.430       .  S
C3071      C3076   1.404       .  A
C3071      C3080   1.398       .  A
N3072      O3087   1.262       .  A
N3072      O3088   1.262       .  A
N3074      O3085   1.262       .  A
N3074      O3086   1.262       .  A
C3076      C3077   1.403       .  A
C3076      N3081   1.428       .  S
C3077      C3078   1.413       .  A
C3077      H3082   1.084       .  S
C3078      C3079   1.420       .  A
C3079      C3080   1.405       .  A
C3079      N3083   1.424       .  S
C3080      H3084   1.085       .  S
N3081      O3091   1.262       .  A
N3081      O3092   1.262       .  A
N3083      O3089   1.262       .  A
N3083      O3090   1.262       .  A
C3093      C3094   1.400       .  A
C3093      C3098   1.405       .  A
C3093      H3103   1.085       .  S
C3094      C3099   1.485       .  S
C3094      C3095   1.406       .  A
C3095      C3096   1.401       .  A
C3095      N3100   1.429       .  S
C3096      C3097   1.411       .  A
C3096      H3101   1.084       .  S
C3097      C3098   1.420       .  A
C3098      N3102   1.427       .  S
C3099      C3104   1.408       .  A
C3099      C3108   1.401       .  A
N3100      O3115   1.262       .  A
N3100      O3116   1.262       .  A
N3102      O3113   1.262       .  A
N3102      O3114   1.262       .  A
C3104      C3105   1.403       .  A
C3104      N3109   1.428       .  S
C3105      C3106   1.407       .  A
C3105      H3110   1.085       .  S
C3106      C3107   1.415       .  A
C3107      C3108   1.402       .  A
C3107      N3111   1.428       .  S
C3108      H3112   1.085       .  S
N3109      O3119   1.262       .  A
N3109      O3120   1.262       .  A
N3111      O3117   1.262       .  A
N3111      O3118   1.262       .  A
C3121      C3122   1.405       .  A
C3121      C3126   1.404       .  A
C3121      H3131   1.085       .  S
C3122      C3127   1.493       .  S
C3122      C3123   1.415       .  A
C3123      C3124   1.400       .  A
C3123      N3128   1.430       .  S
C3124      C3125   1.402       .  A
C3124      H3129   1.086       .  S
C3125      C3126   1.413       .  A
C3126      N3130   1.429       .  S
C3127      C3132   1.416   1_545  A
C3127      C3136   1.403       .  A
N3128      O3143   1.262       .  A
N3128      O3144   1.262       .  A
N3130      O3141   1.262       .  A
N3130      O3142   1.262       .  A
C3132      C3133   1.405       .  A
C3132      N3137   1.429       .  S
C3133      C3134   1.403       .  A
C3133      H3138   1.086       .  S
C3134      C3135   1.411   1_565  A
C3135      C3136   1.398       .  A
C3135      N3139   1.429   1_556  S
C3136      H3140   1.085       .  S
N3137      O3147   1.262       .  A
N3137      O3148   1.262   1_565  A
N3139      O3145   1.262       .  A
N3139      O3146   1.262       .  A
C3149      C3150   1.398       .  A
C3149      C3154   1.398       .  A
C3149      H3159   1.086       .  S
C3150      C3155   1.482       .  S
C3150      C3151   1.409       .  A
C3151      C3152   1.406       .  A
C3151      N3156   1.428       .  S
C3152      C3153   1.408       .  A
C3152      H3157   1.085       .  S
C3153      C3154   1.416       .  A
C3154      N3158   1.429       .  S
C3155      C3160   1.406       .  A
C3155      C3164   1.402       .  A
N3156      O3171   1.262       .  A
N3156      O3172   1.262       .  A
N3158      O3169   1.262       .  A
N3158      O3170   1.262       .  A
C3160      C3161   1.400       .  A
C3160      N3165   1.429       .  S
C3161      C3162   1.408       .  A
C3161      H3166   1.084       .  S
C3162      C3163   1.417       .  A
C3163      C3164   1.406       .  A
C3163      N3167   1.428       .  S
C3164      H3168   1.085       .  S
N3165      O3175   1.262       .  A
N3165      O3176   1.262       .  A
N3167      O3173   1.262       .  A
N3167      O3174   1.262       .  A
C3177      C3178   1.399       .  A
C3177      C3182   1.402       .  A
C3177      H3187   1.085       .  S
C3178      C3183   1.480       .  S
C3178      C3179   1.408       .  A
C3179      C3180   1.400       .  A
C3179      N3184   1.429       .  S
C3180      C3181   1.408       .  A
C3180      H3185   1.085       .  S
C3181      C3182   1.419       .  A
C3182      N3186   1.429       .  S
C3183      C3188   1.407       .  A
C3183      C3192   1.401       .  A
N3184      O3199   1.262       .  A
N3184      O3200   1.262       .  A
N3186      O3197   1.262       .  A
N3186      O3198   1.262       .  A
C3188      C3189   1.399       .  A
C3188      N3193   1.430       .  S
C3189      C3190   1.406   1_556  A
C3189      H3194   1.085       .  S
C3190      C3191   1.414       .  A
C3191      C3192   1.405   1_554  A
C3191      N3195   1.429       .  S
C3192      H3196   1.085       .  S
N3193      O3203   1.262       .  A
N3193      O3204   1.262       .  A
N3195      O3201   1.262       .  A
N3195      O3202   1.262       .  A
C3205      C3206   1.402       .  A
C3205      C3210   1.397       .  A
C3205      H3215   1.086       .  S
C3206      C3211   1.488       .  S
C3206      C3207   1.413       .  A
C3207      C3208   1.404       .  A
C3207      N3212   1.429       .  S
C3208      C3209   1.403       .  A
C3208      H3213   1.086       .  S
C3209      C3210   1.411       .  A
C3210      N3214   1.430       .  S
C3211      C3216   1.412       .  A
C3211      C3220   1.405       .  A
N3212      O3227   1.262       .  A
N3212      O3228   1.262       .  A
N3214      O3225   1.262       .  A
N3214      O3226   1.262       .  A
C3216      C3217   1.395       .  A
C3216      N3221   1.430       .  S
C3217      C3218   1.403       .  A
C3217      H3222   1.086       .  S
C3218      C3219   1.412       .  A
C3219      C3220   1.405       .  A
C3219      N3223   1.428       .  S
C3220      H3224   1.085       .  S
N3221      O3231   1.262       .  A
N3221      O3232   1.262       .  A
N3223      O3229   1.262       .  A
N3223      O3230   1.262       .  A
C3233      C3234   1.404       .  A
C3233      C3238   1.398       .  A
C3233      H3243   1.087       .  S
C3234      C3239   1.492       .  S
C3234      C3235   1.414       .  A
C3235      C3236   1.404       .  A
C3235      N3240   1.429       .  S
C3236      C3237   1.404       .  A
C3236      H3241   1.087       .  S
C3237      C3238   1.414       .  A
C3238      N3242   1.430       .  S
C3239      C3244   1.414   1_545  A
C3239      C3248   1.406       .  A
N3240      O3255   1.262       .  A
N3240      O3256   1.262       .  A
N3242      O3253   1.262       .  A
N3242      O3254   1.262       .  A
C3244      C3245   1.400       .  A
C3244      N3249   1.430       .  S
C3245      C3246   1.402   1_565  A
C3245      H3250   1.088       .  S
C3246      C3247   1.410       .  A
C3247      C3248   1.401       .  A
C3247      N3251   1.429       .  S
C3248      H3252   1.087       .  S
N3249      O3259   1.262       .  A
N3249      O3260   1.262       .  A
N3251      O3257   1.262       .  A
N3251      O3258   1.262       .  A
C3261      C3262   1.402       .  A
C3261      C3266   1.400       .  A
C3261      H3271   1.085       .  S
C3262      C3267   1.498       .  S
C3262      C3263   1.416       .  A
C3263      C3264   1.411       .  A
C3263      N3268   1.431       .  S
C3264      C3265   1.407       .  A
C3264      H3269   1.085       .  S
C3265      C3266   1.416       .  A
C3266      N3270   1.429       .  S
C3267      C3272   1.416       .  A
C3267      C3276   1.406       .  A
N3268      O3283   1.262       .  A
N3268      O3284   1.262       .  A
N3270      O3281   1.262       .  A
N3270      O3282   1.262       .  A
C3272      C3273   1.409       .  A
C3272      N3277   1.431       .  S
C3273      C3274   1.404       .  A
C3273      H3278   1.085       .  S
C3274      C3275   1.408       .  A
C3275      C3276   1.402       .  A
C3275      N3279   1.429       .  S
C3276      H3280   1.085       .  S
N3277      O3287   1.262       .  A
N3277      O3288   1.262       .  A
N3279      O3285   1.262       .  A
N3279      O3286   1.262       .  A
C3289      C3290   1.398       .  A
C3289      C3294   1.400       .  A
C3289      H3299   1.085       .  S
C3290      C3295   1.476       .  S
C3290      C3291   1.406       .  A
C3291      C3292   1.399       .  A
C3291      N3296   1.430       .  S
C3292      C3293   1.409       .  A
C3292      H3297   1.084       .  S
C3293      C3294   1.417       .  A
C3294      N3298   1.428       .  S
C3295      C3300   1.405       .  A
C3295      C3304   1.399       .  A
N3296      O3311   1.262       .  A
N3296      O3312   1.262       .  A
N3298      O3309   1.262       .  A
N3298      O3310   1.262       .  A
C3300      C3301   1.397       .  A
C3300      N3305   1.430       .  S
C3301      C3302   1.408       .  A
C3301      H3306   1.086   1_556  S
C3302      C3303   1.417       .  A
C3303      C3304   1.404       .  A
C3303      N3307   1.428       .  S
C3304      H3308   1.086       .  S
N3305      O3315   1.262       .  A
N3305      O3316   1.262       .  A
N3307      O3313   1.262       .  A
N3307      O3314   1.262       .  A
C3317      C3318   1.406       .  A
C3317      C3322   1.407   1_556  A
C3317      H3327   1.086       .  S
C3318      C3323   1.492       .  S
C3318      C3319   1.412       .  A
C3319      C3320   1.398       .  A
C3319      N3324   1.430       .  S
C3320      C3321   1.403   1_556  A
C3320      H3325   1.086       .  S
C3321      C3322   1.412       .  A
C3322      N3326   1.428       .  S
C3323      C3328   1.412       .  A
C3323      C3332   1.399       .  A
N3324      O3339   1.262       .  A
N3324      O3340   1.262       .  A
N3326      O3337   1.262       .  A
N3326      O3338   1.262       .  A
C3328      C3329   1.409       .  A
C3328      N3333   1.428       .  S
C3329      C3330   1.408       .  A
C3329      H3334   1.085       .  S
C3330      C3331   1.418       .  A
C3331      C3332   1.396       .  A
C3331      N3335   1.428       .  S
C3332      H3336   1.086       .  S
N3333      O3343   1.262       .  A
N3333      O3344   1.262       .  A
N3335      O3341   1.262       .  A
N3335      O3342   1.261       .  A
C3345      C3346   1.397       .  A
C3345      C3350   1.396       .  A
C3345      H3355   1.087       .  S
C3346      C3351   1.478       .  S
C3346      C3347   1.407       .  A
C3347      C3348   1.404       .  A
C3347      N3352   1.429       .  S
C3348      C3349   1.410       .  A
C3348      H3353   1.086       .  S
C3349      C3350   1.418       .  A
C3350      N3354   1.429       .  S
C3351      C3356   1.407       .  A
C3351      C3360   1.402       .  A
N3352      O3367   1.262       .  A
N3352      O3368   1.262       .  A
N3354      O3365   1.262       .  A
N3354      O3366   1.262       .  A
C3356      C3357   1.400       .  A
C3356      N3361   1.429       .  S
C3357      C3358   1.407       .  A
C3357      H3362   1.085       .  S
C3358      C3359   1.412       .  A
C3359      C3360   1.402       .  A
C3359      N3363   1.428       .  S
C3360      H3364   1.085       .  S
N3361      O3371   1.262       .  A
N3361      O3372   1.262       .  A
N3363      O3369   1.262       .  A
N3363      O3370   1.262       .  A
C3373      C3374   1.403       .  A
C3373      C3378   1.400       .  A
C3373      H3383   1.086       .  S
C3374      C3379   1.487       .  S
C3374      C3375   1.409       .  A
C3375      C3376   1.403       .  A
C3375      N3380   1.428       .  S
C3376      C3377   1.408       .  A
C3376      H3381   1.085       .  S
C3377      C3378   1.416       .  A
C3378      N3382   1.429       .  S
C3379      C3384   1.409       .  A
C3379      C3388   1.404       .  A
N3380      O3395   1.262       .  A
N3380      O3396   1.262       .  A
N3382      O3393   1.262       .  A
N3382      O3394   1.262       .  A
C3384      C3385   1.399       .  A
C3384      N3389   1.429       .  S
C3385      C3386   1.405       .  A
C3385      H3390   1.086       .  S
C3386      C3387   1.412       .  A
C3387      C3388   1.405       .  A
C3387      N3391   1.429       .  S
C3388      H3392   1.085       .  S
N3389      O3399   1.262       .  A
N3389      O3400   1.262       .  A
N3391      O3397   1.262       .  A
N3391      O3398   1.262       .  A
C3401      C3402   1.405       .  A
C3401      C3406   1.407       .  A
C3401      H3411   1.088       .  S
C3402      C3407   1.493       .  S
C3402      C3403   1.413       .  A
C3403      C3404   1.396       .  A
C3403      N3408   1.431       .  S
C3404      C3405   1.404       .  A
C3404      H3409   1.088       .  S
C3405      C3406   1.417       .  A
C3406      N3410   1.431       .  S
C3407      C3412   1.415       .  A
C3407      C3416   1.403       .  A
N3408      O3423   1.262       .  A
N3408      O3424   1.262       .  A
N3410      O3421   1.262       .  A
N3410      O3422   1.262       .  A
C3412      C3413   1.405       .  A
C3412      N3417   1.429       .  S
C3413      C3414   1.404       .  A
C3413      H3418   1.086       .  S
C3414      C3415   1.411       .  A
C3415      C3416   1.396       .  A
C3415      N3419   1.428       .  S
C3416      H3420   1.086       .  S
N3417      O3427   1.262       .  A
N3417      O3428   1.261       .  A
N3419      O3425   1.262       .  A
N3419      O3426   1.262       .  A
C3429      C3430   1.402       .  A
C3429      C3434   1.404       .  A
C3429      H3439   1.086       .  S
C3430      C3435   1.485       .  S
C3430      C3431   1.408       .  A
C3431      C3432   1.404       .  A
C3431      N3436   1.428       .  S
C3432      C3433   1.405       .  A
C3432      H3437   1.086       .  S
C3433      C3434   1.414       .  A
C3434      N3438   1.429       .  S
C3435      C3440   1.408       .  A
C3435      C3444   1.404       .  A
N3436      O3451   1.262       .  A
N3436      O3452   1.261       .  A
N3438      O3449   1.262       .  A
N3438      O3450   1.262       .  A
C3440      C3441   1.403       .  A
C3440      N3445   1.429       .  S
C3441      C3442   1.406       .  A
C3441      H3446   1.084       .  S
C3442      C3443   1.413       .  A
C3443      C3444   1.407       .  A
C3443      N3447   1.432       .  S
C3444      H3448   1.084       .  S
N3445      O3455   1.262       .  A
N3445      O3456   1.262       .  A
N3447      O3453   1.263       .  A
N3447      O3454   1.262       .  A
C3457      C3458   1.400       .  A
C3457      C3462   1.404       .  A
C3457      H3467   1.085       .  S
C3458      C3463   1.490       .  S
C3458      C3459   1.409   1_554  A
C3459      C3460   1.404       .  A
C3459      N3464   1.429       .  S
C3460      C3461   1.409   1_556  A
C3460      H3465   1.085       .  S
C3461      C3462   1.420       .  A
C3462      N3466   1.430       .  S
C3463      C3468   1.409       .  A
C3463      C3472   1.401   1_554  A
N3464      O3479   1.262       .  A
N3464      O3480   1.262       .  A
N3466      O3477   1.262       .  A
N3466      O3478   1.263       .  A
C3468      C3469   1.401       .  A
C3468      N3473   1.429       .  S
C3469      C3470   1.410       .  A
C3469      H3474   1.085       .  S
C3470      C3471   1.420   1_554  A
C3471      C3472   1.405       .  A
C3471      N3475   1.427       .  S
C3472      H3476   1.086       .  S
N3473      O3483   1.262       .  A
N3473      O3484   1.262       .  A
N3475      O3481   1.262       .  A
N3475      O3482   1.262       .  A
C3485      C3486   1.402       .  A
C3485      C3490   1.408       .  A
C3485      H3495   1.085       .  S
C3486      C3491   1.483       .  S
C3486      C3487   1.405       .  A
C3487      C3488   1.398       .  A
C3487      N3492   1.429       .  S
C3488      C3489   1.410       .  A
C3488      H3493   1.084       .  S
C3489      C3490   1.418       .  A
C3490      N3494   1.428       .  S
C3491      C3496   1.410       .  A
C3491      C3500   1.399       .  A
N3492      O3507   1.262       .  A
N3492      O3508   1.262       .  A
N3494      O3505   1.262       .  A
N3494      O3506   1.262       .  A
C3496      C3497   1.407       .  A
C3496      N3501   1.428       .  S
C3497      C3498   1.405       .  A
C3497      H3502   1.085       .  S
C3498      C3499   1.413       .  A
C3499      C3500   1.400       .  A
C3499      N3503   1.429   1_556  S
C3500      H3504   1.085       .  S
N3501      O3511   1.262       .  A
N3501      O3512   1.262       .  A
N3503      O3509   1.262       .  A
N3503      O3510   1.262       .  A
C3513      C3514   1.398       .  A
C3513      C3518   1.401       .  A
C3513      H3523   1.085       .  S
C3514      C3519   1.477       .  S
C3514      C3515   1.407       .  A
C3515      C3516   1.399       .  A
C3515      N3520   1.430       .  S
C3516      C3517   1.408       .  A
C3516      H3521   1.084       .  S
C3517      C3518   1.420       .  A
C3518      N3522   1.429       .  S
C3519      C3524   1.406       .  A
C3519      C3528   1.399       .  A
N3520      O3535   1.262       .  A
N3520      O3536   1.262       .  A
N3522      O3533   1.262       .  A
N3522      O3534   1.262       .  A
C3524      C3525   1.398       .  A
C3524      N3529   1.430       .  S
C3525      C3526   1.408   1_554  A
C3525      H3530   1.085       .  S
C3526      C3527   1.416       .  A
C3527      C3528   1.404   1_556  A
C3527      N3531   1.430       .  S
C3528      H3532   1.085       .  S
N3529      O3539   1.262       .  A
N3529      O3540   1.262       .  A
N3531      O3537   1.262       .  A
N3531      O3538   1.262       .  A
C3541      C3542   1.400       .  A
C3541      C3546   1.396       .  A
C3541      H3551   1.086       .  S
C3542      C3547   1.485       .  S
C3542      C3543   1.410       .  A
C3543      C3544   1.406       .  A
C3543      N3548   1.429       .  S
C3544      C3545   1.407       .  A
C3544      H3549   1.085       .  S
C3545      C3546   1.415       .  A
C3546      N3550   1.429       .  S
C3547      C3552   1.408       .  A
C3547      C3556   1.404       .  A
N3548      O3563   1.262       .  A
N3548      O3564   1.262       .  A
N3550      O3561   1.262       .  A
N3550      O3562   1.262       .  A
C3552      C3553   1.394       .  A
C3552      N3557   1.430       .  S
C3553      C3554   1.407       .  A
C3553      H3558   1.085       .  S
C3554      C3555   1.418       .  A
C3555      C3556   1.407       .  A
C3555      N3559   1.429       .  S
C3556      H3560   1.085       .  S
N3557      O3567   1.262       .  A
N3557      O3568   1.262       .  A
N3559      O3565   1.262       .  A
N3559      O3566   1.262       .  A
C3569      C3570   1.399       .  A
C3569      C3574   1.400       .  A
C3569      H3579   1.085       .  S
C3570      C3575   1.479       .  S
C3570      C3571   1.407       .  A
C3571      C3572   1.402       .  A
C3571      N3576   1.428       .  S
C3572      C3573   1.407       .  A
C3572      H3577   1.085       .  S
C3573      C3574   1.418       .  A
C3574      N3578   1.429       .  S
C3575      C3580   1.407       .  A
C3575      C3584   1.402       .  A
N3576      O3591   1.262       .  A
N3576      O3592   1.262       .  A
N3578      O3589   1.262       .  A
N3578      O3590   1.262       .  A
C3580      C3581   1.397       .  A
C3580      N3585   1.429       .  S
C3581      C3582   1.404   1_655  A
C3581      H3586   1.085       .  S
C3582      C3583   1.413       .  A
C3583      C3584   1.406   1_455  A
C3583      N3587   1.428       .  S
C3584      H3588   1.085       .  S
N3585      O3595   1.262       .  A
N3585      O3596   1.262       .  A
N3587      O3593   1.262       .  A
N3587      O3594   1.262       .  A
C3597      C3598   1.400       .  A
C3597      C3602   1.405       .  A
C3597      H3607   1.085       .  S
C3598      C3603   1.473       .  S
C3598      C3599   1.404       .  A
C3599      C3600   1.393       .  A
C3599      N3604   1.430       .  S
C3600      C3601   1.409       .  A
C3600      H3605   1.084       .  S
C3601      C3602   1.417       .  A
C3602      N3606   1.428       .  S
C3603      C3608   1.408       .  A
C3603      C3612   1.399       .  A
N3604      O3619   1.262       .  A
N3604      O3620   1.262       .  A
N3606      O3617   1.262       .  A
N3606      O3618   1.262       .  A
C3608      C3609   1.400       .  A
C3608      N3613   1.429       .  S
C3609      C3610   1.403       .  A
C3609      H3614   1.085       .  S
C3610      C3611   1.412       .  A
C3611      C3612   1.398       .  A
C3611      N3615   1.429       .  S
C3612      H3616   1.086       .  S
N3613      O3623   1.261       .  A
N3613      O3624   1.262       .  A
N3615      O3621   1.262       .  A
N3615      O3622   1.262       .  A
C3625      C3626   1.401       .  A
C3625      C3630   1.400       .  A
C3625      H3635   1.085       .  S
C3626      C3631   1.482       .  S
C3626      C3627   1.411       .  A
C3627      C3628   1.402       .  A
C3627      N3632   1.430       .  S
C3628      C3629   1.404       .  A
C3628      H3633   1.085       .  S
C3629      C3630   1.413       .  A
C3630      N3634   1.430       .  S
C3631      C3636   1.407       .  A
C3631      C3640   1.400       .  A
N3632      O3647   1.262       .  A
N3632      O3648   1.262       .  A
N3634      O3645   1.262       .  A
N3634      O3646   1.262       .  A
C3636      C3637   1.398       .  A
C3636      N3641   1.431       .  S
C3637      C3638   1.412       .  A
C3637      H3642   1.085       .  S
C3638      C3639   1.418       .  A
C3639      C3640   1.404       .  A
C3639      N3643   1.426       .  S
C3640      H3644   1.086       .  S
N3641      O3651   1.262       .  A
N3641      O3652   1.262       .  A
N3643      O3649   1.262       .  A
N3643      O3650   1.262       .  A
C3653      C3654   1.400       .  A
C3653      C3658   1.404       .  A
C3653      H3663   1.085       .  S
C3654      C3659   1.473       .  S
C3654      C3655   1.404       .  A
C3655      C3656   1.394       .  A
C3655      N3660   1.429       .  S
C3656      C3657   1.408       .  A
C3656      H3661   1.085       .  S
C3657      C3658   1.417       .  A
C3658      N3662   1.429       .  S
C3659      C3664   1.408       .  A
C3659      C3668   1.397       .  A
N3660      O3675   1.262       .  A
N3660      O3676   1.262       .  A
N3662      O3673   1.262       .  A
N3662      O3674   1.262       .  A
C3664      C3665   1.403       .  A
C3664      N3669   1.428       .  S
C3665      C3666   1.404       .  A
C3665      H3670   1.086       .  S
C3666      C3667   1.414       .  A
C3667      C3668   1.396       .  A
C3667      N3671   1.430       .  S
C3668      H3672   1.086       .  S
N3669      O3679   1.262       .  A
N3669      O3680   1.262       .  A
N3671      O3677   1.262       .  A
N3671      O3678   1.262       .  A
C3681      C3682   1.405       .  A
C3681      C3686   1.405       .  A
C3681      H3691   1.087       .  S
C3682      C3687   1.484       .  S
C3682      C3683   1.409       .  A
C3683      C3684   1.395       .  A
C3683      N3688   1.430       .  S
C3684      C3685   1.403       .  A
C3684      H3689   1.087       .  S
C3685      C3686   1.412       .  A
C3686      N3690   1.430       .  S
C3687      C3692   1.410       .  A
C3687      C3696   1.404       .  A
N3688      O3703   1.262       .  A
N3688      O3704   1.262       .  A
N3690      O3701   1.262       .  A
N3690      O3702   1.262       .  A
C3692      C3693   1.401       .  A
C3692      N3697   1.428       .  S
C3693      C3694   1.403       .  A
C3693      H3698   1.086       .  S
C3694      C3695   1.410       .  A
C3695      C3696   1.397       .  A
C3695      N3699   1.430       .  S
C3696      H3700   1.087       .  S
N3697      O3707   1.262       .  A
N3697      O3708   1.262       .  A
N3699      O3705   1.262       .  A
N3699      O3706   1.262       .  A
C3709      C3710   1.406       .  A
C3709      C3714   1.408       .  A
C3709      H3719   1.085       .  S
C3710      C3715   1.488       .  S
C3710      C3711   1.411       .  A
C3711      C3712   1.394       .  A
C3711      N3716   1.430       .  S
C3712      C3713   1.404       .  A
C3712      H3717   1.086       .  S
C3713      C3714   1.414       .  A
C3714      N3718   1.428       .  S
C3715      C3720   1.413       .  A
C3715      C3724   1.403       .  A
N3716      O3731   1.262       .  A
N3716      O3732   1.262       .  A
N3718      O3729   1.262       .  A
N3718      O3730   1.262       .  A
C3720      C3721   1.405       .  A
C3720      N3725   1.429       .  S
C3721      C3722   1.403       .  A
C3721      H3726   1.086       .  S
C3722      C3723   1.410       .  A
C3723      C3724   1.397       .  A
C3723      N3727   1.429   1_655  S
C3724      H3728   1.086       .  S
N3725      O3735   1.262       .  A
N3725      O3736   1.262       .  A
N3727      O3733   1.262       .  A
N3727      O3734   1.262       .  A
C3737      C3738   1.403       .  A
C3737      C3742   1.406   1_655  A
C3737      H3747   1.085   1_655  S
C3738      C3743   1.482       .  S
C3738      C3739   1.406       .  A
C3739      C3740   1.398       .  A
C3739      N3744   1.430       .  S
C3740      C3741   1.409   1_655  A
C3740      H3745   1.085       .  S
C3741      C3742   1.415       .  A
C3742      N3746   1.428       .  S
C3743      C3748   1.410       .  A
C3743      C3752   1.399       .  A
N3744      O3759   1.262       .  A
N3744      O3760   1.262       .  A
N3746      O3757   1.262       .  A
N3746      O3758   1.262       .  A
C3748      C3749   1.405       .  A
C3748      N3753   1.428       .  S
C3749      C3750   1.405       .  A
C3749      H3754   1.085       .  S
C3750      C3751   1.416       .  A
C3751      C3752   1.398       .  A
C3751      N3755   1.430       .  S
C3752      H3756   1.086       .  S
N3753      O3763   1.262       .  A
N3753      O3764   1.262       .  A
N3755      O3761   1.262       .  A
N3755      O3762   1.262       .  A
C3765      C3766   1.399       .  A
C3765      C3770   1.399       .  A
C3765      H3775   1.086       .  S
C3766      C3771   1.476       .  S
C3766      C3767   1.406       .  A
C3767      C3768   1.401       .  A
C3767      N3772   1.428       .  S
C3768      C3769   1.407       .  A
C3768      H3773   1.085       .  S
C3769      C3770   1.417       .  A
C3770      N3774   1.430       .  S
C3771      C3776   1.401       .  A
C3771      C3780   1.400       .  A
N3772      O3787   1.262       .  A
N3772      O3788   1.262       .  A
N3774      O3785   1.262       .  A
N3774      O3786   1.262       .  A
C3776      C3777   1.394       .  A
C3776      N3781   1.429       .  S
C3777      C3778   1.411       .  A
C3777      H3782   1.085       .  S
C3778      C3779   1.419       .  A
C3779      C3780   1.407       .  A
C3779      N3783   1.429       .  S
C3780      H3784   1.086       .  S
N3781      O3791   1.262       .  A
N3781      O3792   1.262       .  A
N3783      O3789   1.262       .  A
N3783      O3790   1.262       .  A
C3793      C3794   1.400       .  A
C3793      C3798   1.399       .  A
C3793      H3803   1.085       .  S
C3794      C3799   1.479       .  S
C3794      C3795   1.409       .  A
C3795      C3796   1.401       .  A
C3795      N3800   1.429       .  S
C3796      C3797   1.405       .  A
C3796      H3801   1.085       .  S
C3797      C3798   1.414       .  A
C3798      N3802   1.429       .  S
C3799      C3804   1.405       .  A
C3799      C3808   1.398       .  A
N3800      O3815   1.262       .  A
N3800      O3816   1.262       .  A
N3802      O3813   1.262       .  A
N3802      O3814   1.262       .  A
C3804      C3805   1.398       .  A
C3804      N3809   1.431       .  S
C3805      C3806   1.413       .  A
C3805      H3810   1.084       .  S
C3806      C3807   1.420       .  A
C3807      C3808   1.406       .  A
C3807      N3811   1.427       .  S
C3808      H3812   1.086       .  S
N3809      O3819   1.262       .  A
N3809      O3820   1.262       .  A
N3811      O3817   1.263       .  A
N3811      O3818   1.262       .  A
C3821      C3822   1.403       .  A
C3821      C3826   1.404       .  A
C3821      H3831   1.085       .  S
C3822      C3827   1.482       .  S
C3822      C3823   1.410       .  A
C3823      C3824   1.396       .  A
C3823      N3828   1.430       .  S
C3824      C3825   1.402       .  A
C3824      H3829   1.086       .  S
C3825      C3826   1.412       .  A
C3826      N3830   1.430       .  S
C3827      C3832   1.411       .  A
C3827      C3836   1.401       .  A
N3828      O3843   1.262       .  A
N3828      O3844   1.262       .  A
N3830      O3841   1.262       .  A
N3830      O3842   1.262       .  A
C3832      C3833   1.402       .  A
C3832      N3837   1.429       .  S
C3833      C3834   1.403       .  A
C3833      H3838   1.086       .  S
C3834      C3835   1.412       .  A
C3835      C3836   1.397       .  A
C3835      N3839   1.430       .  S
C3836      H3840   1.086       .  S
N3837      O3847   1.262       .  A
N3837      O3848   1.262       .  A
N3839      O3845   1.262       .  A
N3839      O3846   1.262       .  A
C3849      C3850   1.397       .  A
C3849      C3854   1.396       .  A
C3849      H3859   1.086       .  S
C3850      C3855   1.480       .  S
C3850      C3851   1.409       .  A
C3851      C3852   1.407       .  A
C3851      N3856   1.428       .  S
C3852      C3853   1.408       .  A
C3852      H3857   1.085       .  S
C3853      C3854   1.416       .  A
C3854      N3858   1.428       .  S
C3855      C3860   1.407       .  A
C3855      C3864   1.401       .  A
N3856      O3871   1.262       .  A
N3856      O3872   1.261       .  A
N3858      O3869   1.262       .  A
N3858      O3870   1.262       .  A
C3860      C3861   1.400       .  A
C3860      N3865   1.428       .  S
C3861      C3862   1.406       .  A
C3861      H3866   1.084       .  S
C3862      C3863   1.417       .  A
C3863      C3864   1.404       .  A
C3863      N3867   1.429       .  S
C3864      H3868   1.085       .  S
N3865      O3875   1.262       .  A
N3865      O3876   1.261       .  A
N3867      O3873   1.262       .  A
N3867      O3874   1.262       .  A
C3877      C3878   1.401       .  A
C3877      C3882   1.404       .  A
C3877      H3887   1.085       .  S
C3878      C3883   1.485       .  S
C3878      C3879   1.407       .  A
C3879      C3880   1.404       .  A
C3879      N3884   1.429       .  S
C3880      C3881   1.411       .  A
C3880      H3885   1.084       .  S
C3881      C3882   1.419       .  A
C3882      N3886   1.428       .  S
C3883      C3888   1.409       .  A
C3883      C3892   1.400       .  A
N3884      O3899   1.262       .  A
N3884      O3900   1.262       .  A
N3886      O3897   1.262       .  A
N3886      O3898   1.262       .  A
C3888      C3889   1.406       .  A
C3888      N3893   1.428       .  S
C3889      C3890   1.406       .  A
C3889      H3894   1.085       .  S
C3890      C3891   1.414       .  A
C3891      C3892   1.401       .  A
C3891      N3895   1.429       .  S
C3892      H3896   1.085       .  S
N3893      O3903   1.262       .  A
N3893      O3904   1.261       .  A
N3895      O3901   1.262       .  A
N3895      O3902   1.262       .  A
C3905      C3906   1.404       .  A
C3905      C3910   1.407       .  A
C3905      H3915   1.085       .  S
C3906      C3911   1.483       .  S
C3906      C3907   1.407       .  A
C3907      C3908   1.400       .  A
C3907      N3912   1.429       .  S
C3908      C3909   1.407       .  A
C3908      H3913   1.085       .  S
C3909      C3910   1.414       .  A
C3910      N3914   1.428       .  S
C3911      C3916   1.408       .  A
C3911      C3920   1.398       .  A
N3912      O3927   1.262       .  A
N3912      O3928   1.262       .  A
N3914      O3925   1.262       .  A
N3914      O3926   1.262       .  A
C3916      C3917   1.406       .  A
C3916      N3921   1.428       .  S
C3917      C3918   1.408       .  A
C3917      H3922   1.085       .  S
C3918      C3919   1.420       .  A
C3919      C3920   1.400       .  A
C3919      N3923   1.430       .  S
C3920      H3924   1.086       .  S
N3921      O3931   1.262       .  A
N3921      O3932   1.262       .  A
N3923      O3929   1.262       .  A
N3923      O3930   1.262       .  A
C3933      C3934   1.401       .  A
C3933      C3938   1.402       .  A
C3933      H3943   1.085       .  S
C3934      C3939   1.486       .  S
C3934      C3935   1.411       .  A
C3935      C3936   1.400       .  A
C3935      N3940   1.432       .  S
C3936      C3937   1.407       .  A
C3936      H3941   1.084       .  S
C3937      C3938   1.419       .  A
C3938      N3942   1.429       .  S
C3939      C3944   1.412       .  A
C3939      C3948   1.403       .  A
N3940      O3955   1.262       .  A
N3940      O3956   1.262       .  A
N3942      O3953   1.262       .  A
N3942      O3954   1.262       .  A
C3944      C3945   1.399       .  A
C3944      N3949   1.434       .  S
C3945      C3946   1.405       .  A
C3945      H3950   1.084       .  S
C3946      C3947   1.415       .  A
C3947      C3948   1.404       .  A
C3947      N3951   1.428       .  S
C3948      H3952   1.085       .  S
N3949      O3959   1.262       .  A
N3949      O3960   1.262       .  A
N3951      O3957   1.262       .  A
N3951      O3958   1.262       .  A
C3961      C3962   1.402       .  A
C3961      C3966   1.407       .  A
C3961      H3971   1.085       .  S
C3962      C3967   1.477       .  S
C3962      C3963   1.404       .  A
C3963      C3964   1.395       .  A
C3963      N3968   1.429       .  S
C3964      C3965   1.408       .  A
C3964      H3969   1.085       .  S
C3965      C3966   1.417       .  A
C3966      N3970   1.429       .  S
C3967      C3972   1.407       .  A
C3967      C3976   1.398       .  A
N3968      O3983   1.262       .  A
N3968      O3984   1.262       .  A
N3970      O3981   1.262       .  A
N3970      O3982   1.262       .  A
C3972      C3973   1.402       .  A
C3972      N3977   1.429       .  S
C3973      C3974   1.408       .  A
C3973      H3978   1.085       .  S
C3974      C3975   1.415       .  A
C3975      C3976   1.399       .  A
C3975      N3979   1.428       .  S
C3976      H3980   1.086       .  S
N3977      O3987   1.262       .  A
N3977      O3988   1.262       .  A
N3979      O3985   1.262       .  A
N3979      O3986   1.262       .  A
C3989      C3990   1.398       .  A
C3989      C3994   1.402       .  A
C3989      H3999   1.085       .  S
C3990      C3995   1.491       .  S
C3990      C3991   1.412       .  A
C3991      C3992   1.406       .  A
C3991      N3996   1.431       .  S
C3992      C3993   1.409       .  A
C3992      H3997   1.084       .  S
C3993      C3994   1.422       .  A
C3994      N3998   1.431       .  S
C3995      C4000   1.411       .  A
C3995      C4004   1.406       .  A
N3996      O4011   1.262       .  A
N3996      O4012   1.262       .  A
N3998      O4009   1.262       .  A
N3998      O4010   1.262       .  A
C4000      C4001   1.399       .  A
C4000      N4005   1.432       .  S
C4001      C4002   1.408       .  A
C4001      H4006   1.086       .  S
C4002      C4003   1.415       .  A
C4003      C4004   1.407       .  A
C4003      N4007   1.428       .  S
C4004      H4008   1.086       .  S
N4005      O4015   1.262       .  A
N4005      O4016   1.262       .  A
N4007      O4013   1.262       .  A
N4007      O4014   1.262       .  A
