geometry optimzed in LAMMPS
_audit_creation_date              2020-11-30 
_audit_creation_method            'lammps2cif' 
_symmetry_space_group_name_H-M    'P1' 
_symmetry_Int_Tables_number       1 
_symmetry_cell_setting            triclinic 
loop_ 
_symmetry_equiv_pos_as_xyz 
  x,y,z 
_cell_length_a                    40.83216097 
_cell_length_b                    40.56736521321056 
_cell_length_c                    40.29527848115303 
_cell_angle_alpha                 90.2200220512774 
_cell_angle_beta                  89.76806566333816 
_cell_angle_gamma                 90.12325942821545 
loop_ 
_atom_site_label 
_atom_site_type_symbol 
_atom_site_fract_x 
_atom_site_fract_y 
_atom_site_fract_z 
_atom_site_charge 
O1          O  0.63783198  0.62862779  0.53598074    -0.88300
C2          C  0.69877920  0.61750695  0.61348041     0.87700
Mg3        Mg  0.61069048  0.67442781  0.52872309     1.58100
O4          O  0.62770998  0.56915423  0.61604815    -0.88000
O5          O  0.63271182  0.57490779  0.53843373    -0.75400
C6          C  0.53431937  0.70009209  0.67082127     0.92800
O7          O  0.67773299  0.68179232  0.57479981    -0.75200
O8          O  0.54632016  0.71207060  0.64465314    -0.82700
Mg9        Mg  0.68847868  0.63459167  0.54357916     1.58000
C10         C  0.57178817  0.55764707  0.70003462     0.92700
O11         O  0.70335797  0.59173302  0.51071030    -0.80900
H12         H  0.59733330  0.53638194  0.59530017    -0.06300
C13         C  0.62193853  0.65630271  0.66901742     0.87600
O14         O  0.56477708  0.64664606  0.54890890    -0.75500
O15         O  0.68656369  0.60542082  0.58803978    -0.88200
O16         O  0.60109134  0.55513300  0.68950732    -0.81000
C17         C  0.69453053  0.52831274  0.65595157     0.92800
C18         C  0.70990637  0.56126880  0.51108825     0.92700
Mg19       Mg  0.55977500  0.62100306  0.64848246     1.58000
O20         O  0.53954345  0.66974772  0.67933688    -0.81000
O21         O  0.57403739  0.57445970  0.61812476    -0.75200
O22         O  0.69844170  0.53157356  0.62428980    -0.81000
O23         O  0.68866418  0.66120868  0.49554079    -0.82700
O24         O  0.54924820  0.71902473  0.57040961    -0.81100
C25         C  0.59984228  0.55893602  0.60945218     0.87100
O26         O  0.56573591  0.65042933  0.60365533    -0.88200
O27         O  0.61043978  0.62991759  0.65876286    -0.88300
O28         O  0.61695598  0.68342328  0.65414565    -0.75400
Mg29       Mg  0.66622477  0.55648997  0.58069404     1.58000
O30         O  0.67364139  0.54490439  0.67203348    -0.82700
H31         H  0.60907763  0.60338959  0.50479940    -0.06500
O32         O  0.62421777  0.68778938  0.57715781    -0.88000
H33         H  0.65505702  0.71966194  0.59875254    -0.06300
H34         H  0.52980205  0.62720405  0.57919909    -0.06500
C35         C  0.65219991  0.69744262  0.58413898     0.87100
C36         C  0.62593871  0.60258646  0.52539759     0.87700
C37         C  0.55243855  0.64098992  0.57757950     0.87700
H38         H  0.63754187  0.65612656  0.69062922    -0.06400
O39         O  0.68516258  0.61523809  0.64190310    -0.75500
Mg40       Mg  0.58502066  0.69914354  0.61007351     1.58000
H41         H  0.72113354  0.63166863  0.61122571    -0.06500
C42         C  0.68612895  0.69188455  0.49788099     0.92700
O43         O  0.57462127  0.71949345  0.52161945    -0.82700
C44         C  0.54973616  0.72683075  0.53994808     0.92800
O45         O  0.70375761  0.54364787  0.53695234    -0.82700
Mg46       Mg  0.64114556  0.58719652  0.66415969     1.58200
O47         O  0.65961763  0.70439119  0.50988030    -0.81000
O48         O  0.55443576  0.58335359  0.69335615    -0.82700
O49         O  0.86760413  0.58414727  0.31609384    -0.88300
C50         C  0.88299892  0.67581707  0.27682485     0.87700
Mg51       Mg  0.82247529  0.57054594  0.34080171     1.58100
O52         O  0.92792290  0.66249575  0.34866101    -0.88000
O53         O  0.92040683  0.58864825  0.32643721    -0.75400
C54         C  0.79539063  0.69429632  0.44673490     0.92800
O55         O  0.81713237  0.63409741  0.28357997    -0.75200
O56         O  0.78306665  0.67358625  0.42680842    -0.82700
Mg57       Mg  0.86441194  0.60688716  0.26844711     1.58000
C58         C  0.93831805  0.72782541  0.42326968     0.92700
O59         O  0.90803553  0.57568330  0.25088592    -0.80900
H60         H  0.95949422  0.63476195  0.37397788    -0.06300
C61         C  0.84177575  0.71157244  0.36156055     0.87600
O62         O  0.84730293  0.58265932  0.39117880    -0.75500
O63         O  0.89348561  0.64828024  0.28475635    -0.88200
O64         O  0.93944409  0.72624704  0.39182769    -0.81000
C65         C  0.97088163  0.71707054  0.29329855     0.92800
C66         C  0.93890530  0.57734756  0.24774056     0.92700
Mg67       Mg  0.87425569  0.67648904  0.42049175     1.58000
O68         O  0.82624546  0.70161565  0.44617273    -0.81000
O69         O  0.92053974  0.65017664  0.40125809    -0.75200
O70         O  0.96748997  0.68699299  0.28280492    -0.81000
O71         O  0.83413483  0.56607907  0.24922320    -0.82700
O72         O  0.77443337  0.60031518  0.40668330    -0.81100
C73         C  0.93712046  0.64896269  0.37448221     0.87100
O74         O  0.84427806  0.63586495  0.40167551    -0.88200
O75         O  0.86728322  0.69959145  0.37287975    -0.88300
O76         O  0.81502263  0.69548672  0.36025327    -0.75400
Mg77       Mg  0.94114688  0.63692597  0.30381307     1.58000
O78         O  0.95399199  0.72831779  0.31710411    -0.82700
H79         H  0.89257450  0.54950155  0.34039816    -0.06500
O80         O  0.80802913  0.62106343  0.33580589    -0.88000
H81         H  0.77704264  0.64877847  0.30964990    -0.06300
H82         H  0.86497948  0.60413794  0.43308878    -0.06500
C83         C  0.79954890  0.63478914  0.30977427     0.87100
C84         C  0.89330040  0.57301747  0.32787872     0.87700
C85         C  0.85252985  0.60764164  0.40974145     0.87700
H86         H  0.84270358  0.73597285  0.35089583    -0.06400
O87         O  0.88499564  0.70081686  0.29595501    -0.75500
Mg88       Mg  0.79679752  0.64639202  0.38149881     1.58000
H89         H  0.87050556  0.67838238  0.25337373    -0.06500
C90         C  0.80883979  0.55053440  0.25836975     0.92700
O91         O  0.77643088  0.55642652  0.37334947    -0.82700
C92         C  0.76688543  0.57049992  0.40037597     0.92800
O93         O  0.95497712  0.60266552  0.25830678    -0.82700
Mg94       Mg  0.91046829  0.71219190  0.34555309     1.58200
O95         O  0.79791541  0.55237018  0.28849103    -0.81000
O96         O  0.91324161  0.71672429  0.43939328    -0.82700
O97         O  0.88896278  0.44906643  0.11334625    -0.88300
C98         C  0.89930514  0.36249156  0.16544798     0.87700
Mg99       Mg  0.84829512  0.45893530  0.07982214     1.58100
O100        O  0.95494557  0.37146835  0.10001861    -0.88000
O101        O  0.94291077  0.44643879  0.11440322    -0.75400
C102        C  0.83751374  0.32235060  0.99241203     0.92800
O103        O  0.83430002  0.40061072  0.14115992    -0.75200
O104        O  0.82891278  0.35195401  0.99541159    -0.82700
Mg105      Mg  0.87771162  0.43094035  0.16165441     1.58000
C106        C  0.97725605  0.30046583  0.03470065     0.92700
O107        O  0.91697730  0.46480006  0.18505786    -0.80900
H108        H  0.98875269  0.39814609  0.07598368    -0.06300
C109        C  0.87211218  0.31875731  0.07984043     0.87600
O110        O  0.88199492  0.44322342  0.03607935    -0.75500
O111        O  0.90962578  0.38937711  0.15527192    -0.88200
O112        O  0.97412297  0.30596641  0.06553647    -0.81000
C113        C  0.98810681  0.32313944  0.16794017     0.92800
C114        C  0.94619091  0.46334342  0.19566378     0.92700
Mg115      Mg  0.91195427  0.34642628  0.02397650     1.58000
O116        O  0.86599996  0.31293243  0.00252529    -0.81000
O117        O  0.95497898  0.37731855  0.04544519    -0.75200
O118        O  0.98096019  0.35334464  0.17556470    -0.81000
O119        O  0.84432229  0.47225574  0.17083391    -0.82700
O120        O  0.81309403  0.42165400  0.01017395    -0.81100
C121        C  0.96723211  0.38268698  0.07412190     0.87100
O122        O  0.88078094  0.38917735  0.03243311    -0.88200
O123        O  0.89919029  0.33067906  0.07264114    -0.88300
O124        O  0.84536826  0.33288733  0.07208739    -0.75400
Mg125      Mg  0.95965352  0.40074992  0.14468391     1.58000
O126        O  0.97837279  0.31009518  0.14118053    -0.82700
H127        H  0.91749936  0.48284362  0.09153404    -0.06500
O128        O  0.83291023  0.40865019  0.08717524    -0.88000
H129        H  0.79926737  0.38160537  0.11096019    -0.06300
H130        H  0.90679362  0.41703703  0.00101715    -0.06500
C131        C  0.82102791  0.39671915  0.11283564     0.87100
C132        C  0.91624728  0.46046363  0.10597018     0.87700
C133        C  0.89042827  0.41626140  0.02216079     0.87700
H134        H  0.87114603  0.29596002  0.09362293    -0.06400
O135        O  0.90556301  0.33556566  0.15041332    -0.75500
Mg136      Mg  0.83103727  0.37953795  0.04256628     1.58000
H137        H  0.88365417  0.36200377  0.18714787    -0.06500
C138        C  0.82006787  0.48493298  0.15640649     0.92700
O139        O  0.80857231  0.46895771  0.03773245    -0.82700
C140        C  0.80393410  0.45144535  0.01139212     0.92800
O141        O  0.96421359  0.43799656  0.18961901    -0.82700
Mg142      Mg  0.93848905  0.32176136  0.10600381     1.58200
O143        O  0.81431850  0.47985410  0.12527062    -0.81000
O144        O  0.95350866  0.30627255  0.01464736    -0.82700
C145        C  0.77068138  0.51161377  0.95085503     0.80300
N146        N  0.78294982  0.49833686  0.97902749    -0.78000
C147        C  0.78847373  0.46542077  0.98077063     0.82700
N148        N  0.78048110  0.44581342  0.95384339    -0.78000
C149        C  0.76807828  0.45955014  0.92530998     0.82800
N150        N  0.76340825  0.49240716  0.92446522    -0.79700
C151        C  0.00431516  0.51545729  0.24298842     0.80300
N152        N  0.99056921  0.48971019  0.22676716    -0.78000
C153        C  0.95971697  0.49212055  0.21473267     0.82700
N154        N  0.94240112  0.52097344  0.22003076    -0.78000
C155        C  0.95694732  0.54733203  0.23606130     0.82800
N156        N  0.98778386  0.54388769  0.24727206    -0.79700
O157        O  0.67881964  0.37469560  0.89978365    -0.88300
C158        C  0.71521904  0.37910128  0.80475018     0.87700
Mg159      Mg  0.65046885  0.33300318  0.91807104     1.58100
O160        O  0.64981768  0.43171739  0.81904132    -0.88000
O161        O  0.67496344  0.42838032  0.89186292    -0.75400
C162        C  0.54228993  0.30401590  0.79819385     0.92800
O163        O  0.70492853  0.31666713  0.85291219    -0.75200
O164        O  0.56122550  0.29084497  0.81899918    -0.82700
Mg165      Mg  0.72452004  0.36489235  0.87554329     1.58000
C166        C  0.57411942  0.44498447  0.75631534     0.92700
O167        O  0.74676434  0.40966939  0.90259169    -0.80900
H168        H  0.62859447  0.46653006  0.84697793    -0.06300
C169        C  0.62890799  0.34367594  0.77556326     0.87600
O170        O  0.60311563  0.36118189  0.90517203    -0.75500
O171        O  0.70948147  0.39173618  0.83224666    -0.88200
O172        O  0.60513310  0.44496946  0.75710473    -0.81000
C173        C  0.70591663  0.46355613  0.75758377     0.92800
C174        C  0.75358510  0.43976275  0.89754003     0.92700
Mg175      Mg  0.57438323  0.38272359  0.81073157     1.58000
O176        O  0.54520606  0.33465133  0.78962035    -0.81000
O177        O  0.59801964  0.42913431  0.83406726    -0.75200
O178        O  0.71953249  0.45903660  0.78617259    -0.81000
O179        O  0.74182201  0.33644120  0.91821829    -0.82700
O180        O  0.58204784  0.28686861  0.89185933    -0.81100
C181        C  0.62575895  0.44355861  0.83359238     0.87100
O182        O  0.59128246  0.35382827  0.85243830    -0.88200
O183        O  0.61965720  0.37083289  0.78625583    -0.88300
O184        O  0.62863762  0.31776503  0.79329902    -0.75400
Mg185      Mg  0.69705077  0.44213881  0.84032822     1.58000
O186        O  0.67758934  0.45299106  0.75130291    -0.82700
H187        H  0.65973607  0.40520010  0.93383335    -0.06500
O188        O  0.65324396  0.31362962  0.86826897    -0.88000
H189        H  0.67547252  0.27754782  0.84287543    -0.06300
H190        H  0.56266729  0.37991805  0.88310063    -0.06500
C191        C  0.67770252  0.30140367  0.85471619     0.87100
C192        C  0.67088503  0.40262399  0.90958275     0.87700
C193        C  0.58459405  0.36528148  0.88018027     0.87700
H194        H  0.63907565  0.34228678  0.75078312    -0.06400
O195        O  0.69590017  0.38236916  0.78019280    -0.75500
Mg196      Mg  0.60738496  0.30391839  0.84419589     1.58000
H197        H  0.73688828  0.36409505  0.80174811    -0.06500
C198        C  0.73118673  0.31378272  0.93680693     0.92700
O199        O  0.61300132  0.29166645  0.93698727    -0.82700
C200        C  0.58623903  0.28243552  0.92271015     0.92800
O201        O  0.74488164  0.45407520  0.87052453    -0.82700
Mg202      Mg  0.64854951  0.41190117  0.77028625     1.58200
O203        O  0.70050834  0.30555723  0.93733405    -0.81000
O204        O  0.55760639  0.42062742  0.76853331    -0.82700
O205        O  0.41889341  0.18750952  0.87148143    -0.88300
C206        C  0.46062416  0.09746733  0.85346568     0.87700
Mg207      Mg  0.39566156  0.19931179  0.91828149     1.58100
O208        O  0.38739303  0.10779577  0.81113384    -0.88000
O209        O  0.40586525  0.18242923  0.81857424    -0.75400
C210        C  0.29911369  0.06903269  0.94784073     0.92800
O211        O  0.45504347  0.13872254  0.92132726    -0.75200
O212        O  0.31613505  0.09243953  0.95941878    -0.82700
Mg213      Mg  0.46689624  0.16621576  0.87263866     1.58000
C214        C  0.31728051  0.03903151  0.80235441     0.92700
O215        O  0.48036839  0.19688029  0.82768153    -0.80900
H216        H  0.35993395  0.13446116  0.78031848    -0.06300
C217        C  0.38100993  0.05765505  0.89790332     0.87600
O218        O  0.34555848  0.18473671  0.89479438    -0.75500
O219        O  0.45082922  0.12465795  0.84367195    -0.88200
O220        O  0.34803662  0.04256504  0.80009432    -0.81000
C221        C  0.44343515  0.05598231  0.76542667     0.92800
C222        C  0.48139990  0.19731010  0.79626469     0.92700
Mg223      Mg  0.31996678  0.08934695  0.86764519     1.58000
O224        O  0.29985961  0.06102843  0.91678954    -0.81000
O225        O  0.33512625  0.11730896  0.82042580    -0.75200
O226        O  0.45251684  0.08644001  0.76899752    -0.81000
O227        O  0.48664185  0.20815664  0.90222117    -0.82700
O228        O  0.33205898  0.16600777  0.96752770    -0.81100
C229        C  0.36091742  0.12005724  0.80280986     0.87100
O230        O  0.33753990  0.13105848  0.89727479    -0.88200
O231        O  0.36835207  0.06919761  0.87257267    -0.88300
O232        O  0.38223958  0.07359775  0.92513603    -0.75400
Mg233      Mg  0.42957082  0.13544824  0.79598177     1.58000
O234        O  0.42032633  0.04378498  0.78230033    -0.82700
H235        H  0.39186869  0.22090651  0.84767709    -0.06500
O236        O  0.40312257  0.14896785  0.93191334    -0.88000
H237        H  0.43124454  0.12287015  0.96268557    -0.06300
H238        H  0.30464916  0.16175420  0.87767215    -0.06500
C239        C  0.42973343  0.13666041  0.93983723     0.87100
C240        C  0.40531958  0.19802131  0.84614378     0.87700
C241        C  0.32818807  0.15904161  0.88953293     0.87700
H242        H  0.39278347  0.03384862  0.89637666    -0.06400
O243        O  0.44311832  0.07150172  0.85169928    -0.75500
Mg244      Mg  0.35920990  0.12156133  0.94436707     1.58000
H245        H  0.48437730  0.09601052  0.86512244    -0.06500
C246        C  0.47796024  0.22336804  0.92823882     0.92700
O247        O  0.36401971  0.21061948  0.96673926    -0.82700
C248        C  0.33772672  0.19558363  0.97628343     0.92800
O249        O  0.47096973  0.17271483  0.77902830    -0.82700
Mg250      Mg  0.39379084  0.05824634  0.82773123     1.58200
O251        O  0.44855511  0.22019174  0.94035764    -0.81000
O252        O  0.30173732  0.04854204  0.82862525    -0.82700
C253        C  0.52898780  0.26509651  0.99253043     0.80300
N254        N  0.50337288  0.24988930  0.97733762    -0.78000
C255        C  0.50443474  0.24365568  0.94432828     0.82700
N256        N  0.53189297  0.25314239  0.92669430    -0.78000
C257        C  0.55790789  0.26845273  0.94205199     0.82800
N258        N  0.55606680  0.27410792  0.97512383    -0.79700
C259        C  0.47277486  0.27381185  0.74769361     0.80300
N260        N  0.49616939  0.29358601  0.76077003    -0.78000
C261        C  0.51664291  0.28200065  0.78412786     0.82700
N262        N  0.51313989  0.24997906  0.79467824    -0.78000
C263        C  0.49026638  0.22943104  0.78065476     0.82800
N264        N  0.47014720  0.24176364  0.75703474    -0.79700
C265        C  0.50756391  0.01736445  0.71301318     0.80300
N266        N  0.49038091  0.03984600  0.73085877    -0.78000
C267        C  0.46041705  0.03242228  0.74276273     0.82700
N268        N  0.44760857  0.00170413  0.73640860    -0.78000
C269        C  0.46499763  0.97853162  0.71876735     0.82800
N270        N  0.49530052  0.98663040  0.70734171    -0.79700
C271        C  0.99899899  0.02381014  0.23624544     0.80300
N272        N  0.01715759  0.05037086  0.22687618    -0.78000
C273        C  0.04997861  0.05010276  0.23102329     0.82700
N274        N  0.06417361  0.02272550  0.24437257    -0.78000
C275        C  0.04618836  0.99586745  0.25380001     0.82800
N276        N  0.01329895  0.99663150  0.24971749    -0.79700
C277        C  0.30174071  0.25680072  0.03415516     0.80300
N278        N  0.32274502  0.24046760  0.01403773    -0.78000
C279        C  0.31322155  0.21254685  0.99836607     0.82700
N280        N  0.28161368  0.20105673  0.00330234    -0.78000
C281        C  0.25964885  0.21872690  0.02257326     0.82800
N282        N  0.27034046  0.24649127  0.03776785    -0.79700
C283        C  0.26385960  0.00280221  0.00056214     0.80300
N284        N  0.25243391  0.02044972  0.02693668    -0.78000
C285        C  0.25467129  0.05365726  0.02687177     0.82700
N286        N  0.26820460  0.06882486  0.99993198    -0.78000
C287        C  0.27945533  0.05141180  0.97322115     0.82800
N288        N  0.27729814  0.01806568  0.97366994    -0.79700
C289        C  0.25689373  0.03372785  0.26127063     0.80300
N290        N  0.24411127  0.04009937  0.23108999    -0.78000
C291        C  0.21298007  0.03104116  0.22397214     0.82700
N292        N  0.19469557  0.01503855  0.24792916    -0.78000
C293        C  0.20842438  0.00733093  0.27815425     0.82800
N294        N  0.23947117  0.01694469  0.28426452    -0.79700
C295        C  0.05299993  0.29030404  0.98339482     0.80300
N296        N  0.07373558  0.27590382  0.00508458    -0.78000
C297        C  0.06356293  0.26829087  0.03595267     0.82700
N298        N  0.03185407  0.27527149  0.04495974    -0.78000
C299        C  0.01043746  0.28939250  0.02311231     0.82800
N300        N  0.02127558  0.29657477  0.99201810    -0.79700
C301        C  0.01924516  0.28238158  0.24414809     0.80300
N302        N  0.03188142  0.25385383  0.23173526    -0.78000
C303        C  0.03228639  0.24826522  0.19857946     0.82700
N304        N  0.01944735  0.27176345  0.17804721    -0.78000
C305        C  0.00643789  0.30052794  0.19039026     0.82800
N306        N  0.00637622  0.30552720  0.22365960    -0.79700
O307        O  0.13825531  0.12139067  0.18011807    -0.88300
C308        C  0.14916025  0.07400209  0.09117581     0.87700
Mg309      Mg  0.09635762  0.15264323  0.19093144     1.58100
O310        O  0.20344738  0.13907697  0.10214444    -0.88000
O311        O  0.19219497  0.12317784  0.17704920    -0.75400
C312        C  0.08454086  0.24760163  0.05752291     0.92800
O313        O  0.08426253  0.09228122  0.13097143    -0.75200
O314        O  0.06950089  0.23377476  0.08113496    -0.82700
Mg315      Mg  0.12876758  0.07346362  0.16014682     1.58000
C316        C  0.22641259  0.20578021  0.03258632     0.92700
O317        O  0.16864693  0.05198836  0.19296485    -0.80900
H318        H  0.23681646  0.16211880  0.13010189    -0.06300
C319        C  0.12150789  0.15922464  0.04879769     0.87600
O320        O  0.12802514  0.19798074  0.17647469    -0.75500
O321        O  0.16000611  0.08249530  0.11861304    -0.88200
O322        O  0.22358256  0.17490968  0.03628451    -0.81000
C323        C  0.23698350  0.07404013  0.05164943     0.92800
C324        C  0.19856739  0.04389253  0.19258028     0.92700
Mg325      Mg  0.15997323  0.21526200  0.08108571     1.58000
O326        O  0.11525663  0.24203956  0.05137962    -0.81000
O327        O  0.20252338  0.19271677  0.11096450    -0.75200
O328        O  0.23068559  0.06496623  0.08173035    -0.81000
O329        O  0.09662050  0.06183138  0.20158217    -0.82700
O330        O  0.05715920  0.21946466  0.15429130    -0.81100
C331        C  0.21532681  0.16435143  0.11469168     0.87100
O332        O  0.12685656  0.20455726  0.12221671    -0.88200
O333        O  0.14786002  0.16778182  0.06132469    -0.88300
O334        O  0.09428226  0.16281979  0.06380343    -0.75400
Mg335      Mg  0.20967601  0.09444881  0.13022768     1.58000
O336        O  0.22671797  0.10090779  0.04008012    -0.82700
H337        H  0.16570958  0.14385987  0.21447791    -0.06500
O338        O  0.08281209  0.14570702  0.13998549    -0.88000
H339        H  0.04842269  0.12220840  0.11370573    -0.06300
H340        H  0.15109684  0.23531499  0.15231691    -0.06500
C341        C  0.07066050  0.12031528  0.12803973     0.87100
C342        C  0.16516147  0.12986326  0.19159894     0.87700
C343        C  0.13575140  0.21366397  0.15018778     0.87700
H344        H  0.12181668  0.14689684  0.02496391    -0.06400
O345        O  0.15460982  0.09053927  0.06492418    -0.75500
Mg346      Mg  0.07762267  0.18948705  0.11119445     1.58000
H347        H  0.13350064  0.05252472  0.08971181    -0.06500
C348        C  0.07119096  0.07448767  0.21394882     0.92700
O349        O  0.05504249  0.19266950  0.20226654    -0.82700
C350        C  0.04870887  0.21823916  0.18457369     0.92800
O351        O  0.21682653  0.05022395  0.16730422    -0.82700
Mg352      Mg  0.18734220  0.13493973  0.05202540     1.58200
O353        O  0.06397223  0.10524118  0.20977467    -0.81000
O354        O  0.20279986  0.22534512  0.04101997    -0.82700
O355        O  0.37875061  0.93926509  0.63860216    -0.88300
C356        C  0.38720481  0.85082502  0.68585164     0.87700
Mg357      Mg  0.33569373  0.95366433  0.61148298     1.58100
O358        O  0.43282622  0.85544186  0.61308966    -0.88000
O359        O  0.43139706  0.93102919  0.62927086    -0.75400
C360        C  0.29613581  0.82172706  0.51871061     0.92800
O361        O  0.32357277  0.89627635  0.67407738    -0.75200
O362        O  0.28542793  0.84679440  0.53407122    -0.82700
Mg363      Mg  0.37256549  0.92088663  0.68787026     1.58000
C364        C  0.43790837  0.78216973  0.54445097     0.92700
O365        O  0.41795105  0.94878403  0.70362848    -0.80900
H366        H  0.46541552  0.87872657  0.58430020    -0.06300
C367        C  0.34302554  0.81053016  0.60496864     0.87600
O368        O  0.36054622  0.93446200  0.56328114    -0.75500
O369        O  0.39910889  0.87694759  0.67533595    -0.88200
O370        O  0.44114633  0.78790881  0.57524059    -0.81000
C371        C  0.47111919  0.80322248  0.67417500     0.92800
C372        C  0.44874047  0.94751162  0.70702998     0.92700
Mg373      Mg  0.37713959  0.83672939  0.54312040     1.58000
O374        O  0.32627357  0.81211544  0.52174615    -0.81000
O375        O  0.42556562  0.86195920  0.55934145    -0.75200
O376        O  0.46874251  0.83374471  0.68346385    -0.81000
O377        O  0.34509266  0.96555457  0.70384358    -0.82700
O378        O  0.28635137  0.92110137  0.54898384    -0.81100
C379        C  0.44235121  0.86565972  0.58573046     0.87100
O380        O  0.35106468  0.88122650  0.55692905    -0.88200
O381        O  0.36943008  0.81990220  0.59291914    -0.88300
O382        O  0.31711938  0.82792054  0.60363980    -0.75400
Mg383      Mg  0.44802510  0.88363106  0.65617120     1.58000
O384        O  0.45590127  0.79219090  0.64923845    -0.82700
H385        H  0.40627732  0.97063094  0.61231165    -0.06500
O386        O  0.31669667  0.90484628  0.62064054    -0.88000
H387        H  0.28293387  0.88238510  0.64871115    -0.06300
H388        H  0.37627280  0.90765088  0.52367610    -0.06500
C389        C  0.30654920  0.89445261  0.64770435     0.87100
C390        C  0.40533788  0.94806798  0.62647930     0.87700
C391        C  0.36287768  0.90758940  0.54687493     0.87700
H392        H  0.34224729  0.78734187  0.61808816    -0.06400
O393        O  0.38805083  0.82411631  0.66913786    -0.75500
Mg394      Mg  0.30288430  0.87628259  0.57769356     1.58000
H395        H  0.37461061  0.85100730  0.70950458    -0.06500
C396        C  0.32067070  0.98103368  0.69267742     0.92700
O397        O  0.29316314  0.96929254  0.57458413    -0.82700
C398        C  0.28301067  0.95214509  0.54968286     0.92800
O399        O  0.46493797  0.92177175  0.69793884    -0.82700
Mg400      Mg  0.41274302  0.80750518  0.62041973     1.58200
O401        O  0.31116653  0.97748597  0.66216645    -0.81000
O402        O  0.41213878  0.79178472  0.52877362    -0.82700
O403        O  0.12257813  0.91525244  0.30879797    -0.88300
C404        C  0.13407421  0.95766267  0.40051305     0.87700
Mg405      Mg  0.07953661  0.88818671  0.29419886     1.58100
O406        O  0.17991834  0.88616935  0.38948199    -0.88000
O407        O  0.17553875  0.90698289  0.31409985    -0.75400
C408        C  0.04599369  0.78762093  0.42117003     0.92800
O409        O  0.06932884  0.94638970  0.35715746    -0.75200
O410        O  0.03454005  0.80466541  0.39774120    -0.82700
Mg411      Mg  0.11678511  0.96257368  0.33095056     1.58000
C412        C  0.18851125  0.81513467  0.45907505     0.92700
O413        O  0.16057945  0.98236027  0.30095039    -0.80900
H414        H  0.21254569  0.85968767  0.36365718    -0.06300
C415        C  0.09170161  0.87390816  0.43737066     0.87600
O416        O  0.10602928  0.84009233  0.30961498    -0.75500
O417        O  0.14500932  0.94843242  0.37328886    -0.88200
O418        O  0.18986432  0.84610472  0.45534110    -0.81000
C419        C  0.22074743  0.94394975  0.44355185     0.92800
C420        C  0.19099899  0.98777416  0.30432347     0.92700
Mg421      Mg  0.12624227  0.81464483  0.40592898     1.58000
O422        O  0.07631138  0.79042195  0.43042404    -0.81000
O423        O  0.17362599  0.83304087  0.38011697    -0.75200
O424        O  0.21695535  0.95325395  0.41315737    -0.81000
O425        O  0.08710193  0.97940845  0.28926096    -0.82700
O426        O  0.03339740  0.82294046  0.32446693    -0.81100
C427        C  0.18978385  0.85982346  0.37745775     0.87100
O428        O  0.09858305  0.83056850  0.36302347    -0.88200
O429        O  0.11803283  0.86318856  0.42634996    -0.88300
O430        O  0.06531977  0.87300904  0.42059316    -0.75400
Mg431      Mg  0.19333161  0.93061473  0.36312376     1.58000
O432        O  0.20487283  0.91996693  0.45560014    -0.82700
H433        H  0.14921972  0.89224207  0.27405206    -0.06500
O434        O  0.06216864  0.89406868  0.34448412    -0.88000
H435        H  0.02944923  0.91977678  0.37097952    -0.06300
H436        H  0.12358554  0.79985175  0.33344655    -0.06500
C437        C  0.05244869  0.91997393  0.35759214     0.87100
C438        C  0.14893366  0.90462974  0.29785560     0.87700
C439        C  0.10969492  0.82243297  0.33547916     0.87700
H440        H  0.09138172  0.88551424  0.46156770    -0.06400
O441        O  0.13569496  0.93983484  0.42637914    -0.75500
Mg442      Mg  0.05017855  0.84968165  0.37073299     1.58000
H443        H  0.12154567  0.98107462  0.40203368    -0.06500
C444        C  0.06268985  0.96932697  0.27297146     0.92700
O445        O  0.03753432  0.85138681  0.27757464    -0.82700
C446        C  0.02925326  0.82516619  0.29343379     0.92800
O447        O  0.20674686  0.97650579  0.32949392    -0.82700
Mg448      Mg  0.16118041  0.89111843  0.43923174     1.58200
O449        O  0.05305514  0.93888928  0.27416230    -0.81000
O450        O  0.16346477  0.79849173  0.44886666    -0.82700
C451        C  0.00258389  0.74126508  0.48745297     0.80300
N452        N  0.97375488  0.73306307  0.47274057    -0.78000
C453        C  0.96837068  0.74077201  0.44051915     0.82700
N454        N  0.99253546  0.75729970  0.42340127    -0.78000
C455        C  0.02165827  0.76583667  0.43834922     0.82800
N456        N  0.02628457  0.75761122  0.47044910    -0.79700
C457        C  0.27289090  0.00970397  0.47898680     0.80300
N458        N  0.25432920  0.99179338  0.45781998    -0.78000
C459        C  0.24317506  0.96176966  0.46646490     0.82700
N460        N  0.25121010  0.94946231  0.49705042    -0.78000
C461        C  0.26973124  0.96760973  0.51893294     0.82800
N462        N  0.28025748  0.99803845  0.50967002    -0.79700
C463        C  0.24974373  0.75152396  0.48269609     0.80300
N464        N  0.27420323  0.76976234  0.49623522    -0.78000
C465        C  0.27124422  0.80282377  0.49903652     0.82700
N466        N  0.24288687  0.81744065  0.48802683    -0.78000
C467        C  0.21805401  0.79904449  0.47408583     0.82800
N468        N  0.22178676  0.76594953  0.47185349    -0.79700
C469        C  0.03393410  0.75315078  0.23746956     0.80300
N470        N  0.01256904  0.73167046  0.25153239    -0.78000
C471        C  0.99452676  0.74078087  0.27811931     0.82700
N472        N  0.99849652  0.77202800  0.29085106    -0.78000
C473        C  0.01924062  0.79427789  0.27602695     0.82800
N474        N  0.03688505  0.78444314  0.24916970    -0.79700
C475        C  0.25228726  0.01837245  0.74079109     0.80300
N476        N  0.26970175  0.00481057  0.71540330    -0.78000
C477        C  0.30253803  0.00127995  0.71787244     0.82700
N478        N  0.31767701  0.01142544  0.74661625    -0.78000
C479        C  0.30021339  0.02518711  0.77239791     0.82800
N480        N  0.26735285  0.02831155  0.76917769    -0.79700
C481        C  0.77896960  0.25238416  0.98548147     0.80300
N482        N  0.75378240  0.26663918  0.96876384    -0.78000
C483        C  0.75697835  0.29774945  0.95725429     0.82700
N484        N  0.78566496  0.31423231  0.96289210    -0.78000
C485        C  0.81110435  0.30026645  0.97972102     0.82800
N486        N  0.80742650  0.26911060  0.99123045    -0.79700
C487        C  0.49578408  0.74604130  0.74108389     0.80300
N488        N  0.48523970  0.77388361  0.72569164    -0.78000
C489        C  0.48960373  0.77753475  0.69260802     0.82700
N490        N  0.50421079  0.75248804  0.67529577    -0.78000
C491        C  0.51506372  0.72445030  0.69058187     0.82800
N492        N  0.51063254  0.72134071  0.72371795    -0.79700
C493        C  0.49036761  0.75148180  0.47565470     0.80300
N494        N  0.46456341  0.76365417  0.49292206    -0.78000
C495        C  0.46578824  0.76560796  0.52651103     0.82700
N496        N  0.49360519  0.75457134  0.54263357    -0.78000
C497        C  0.51984093  0.74227216  0.52473397     0.82800
N498        N  0.51755075  0.74107680  0.49140833    -0.79700
C499        C  0.75834697  0.74373136  0.51534863     0.80300
N500        N  0.72670257  0.73321802  0.51466544    -0.78000
C501        C  0.71701281  0.71046243  0.49215615     0.82700
N502        N  0.73985227  0.69809524  0.47062296    -0.78000
C503        C  0.77161709  0.70905492  0.47059252     0.82800
N504        N  0.78081361  0.73195848  0.49329446    -0.79700
C505        C  0.50895107  0.50671644  0.74219010     0.80300
N506        N  0.52464073  0.53174395  0.72682374    -0.78000
C507        C  0.55681190  0.52947104  0.71916540     0.82700
N508        N  0.57342956  0.50097664  0.72761821    -0.78000
C509        C  0.55717662  0.47524415  0.74321667     0.82800
N510        N  0.52495941  0.47872802  0.75019128    -0.79700
C511        C  0.75696465  0.46756951  0.68236584     0.80300
N512        N  0.74004563  0.48904504  0.66327359    -0.78000
C513        C  0.71387760  0.50496318  0.67617520     0.82700
N514        N  0.70488916  0.49895815  0.70838716    -0.78000
C515        C  0.72232319  0.47806080  0.72810699     0.82800
N516        N  0.74835084  0.46222400  0.71459200    -0.79700
C517        C  0.72603934  0.50092498  0.44369060     0.80300
N518        N  0.74142336  0.51923504  0.42026084    -0.78000
C519        C  0.74770735  0.55160487  0.42581553     0.82700
N520        N  0.73821200  0.56539984  0.45563002    -0.78000
C521        C  0.72315605  0.54656502  0.47967189     0.82800
N522        N  0.71736179  0.51436580  0.47326719    -0.79700
C523        C  0.74657258  0.51003791  0.20415465     0.80300
N524        N  0.76545540  0.49893711  0.17855587    -0.78000
C525        C  0.79824271  0.50386442  0.17899913     0.82700
N526        N  0.81172419  0.51964174  0.20570417    -0.78000
C527        C  0.79301035  0.53073557  0.23161865     0.82800
N528        N  0.76022544  0.52564951  0.23075543    -0.79700
O529        O  0.11258414  0.29888436  0.61889626    -0.88300
C530        C  0.13002959  0.38896308  0.57696986     0.87700
Mg531      Mg  0.06786974  0.29245114  0.64704102     1.58100
O532        O  0.17692388  0.37780221  0.64951471    -0.88000
O533        O  0.16532455  0.30268062  0.62994224    -0.75400
C534        C  0.05292111  0.42977274  0.74305244     0.92800
O535        O  0.06143842  0.35046243  0.58918069    -0.75200
O536        O  0.03608030  0.40406915  0.73507407    -0.82700
Mg537      Mg  0.10586857  0.32018961  0.57019474     1.58000
C538        C  0.18219891  0.45187708  0.72354902     0.92700
O539        O  0.15254098  0.29168911  0.54432378    -0.80900
H540        H  0.20877765  0.35078338  0.67533516    -0.06300
C541        C  0.09363340  0.43065569  0.66009286     0.87600
O542        O  0.09598231  0.30336270  0.69591020    -0.75500
O543        O  0.13791276  0.36082145  0.58575118    -0.88200
O544        O  0.19176149  0.44820007  0.69310100    -0.81000
C545        C  0.21777403  0.42341160  0.58099193     0.92800
C546        C  0.18358095  0.29822699  0.54245075     0.92700
Mg547      Mg  0.12503434  0.39750816  0.71854227     1.58000
O548        O  0.08343225  0.43093949  0.73727645    -0.81000
O549        O  0.17069720  0.36814138  0.70278240    -0.75200
O550        O  0.20931286  0.39350700  0.57627575    -0.81000
O551        O  0.06496753  0.27992737  0.55493848    -0.82700
O552        O  0.02762312  0.31830461  0.71687641    -0.81100
C553        C  0.18664992  0.36537191  0.67571841     0.87100
O554        O  0.09468479  0.35697363  0.70440452    -0.88200
O555        O  0.11955875  0.41834587  0.67024588    -0.88300
O556        O  0.06584684  0.41652250  0.66383914    -0.75400
Mg557      Mg  0.18555244  0.34963917  0.60499819     1.58000
O558        O  0.20921213  0.43892337  0.60756709    -0.82700
H559        H  0.13673944  0.26408105  0.64377525    -0.06500
O560        O  0.05665971  0.34296229  0.64288896    -0.88000
H561        H  0.02550683  0.37109220  0.61739698    -0.06300
H562        H  0.11629273  0.32597026  0.73599120    -0.06500
C563        C  0.04683362  0.35534909  0.61674798     0.87100
C564        C  0.13803328  0.28737763  0.63089033     0.87700
C565        C  0.10275851  0.32888878  0.71318719     0.87700
H566        H  0.09467221  0.45393917  0.64716193    -0.06400
O567        O  0.13669880  0.41452871  0.59424343    -0.75500
Mg568      Mg  0.04667934  0.36884080  0.68934676     1.58000
H569        H  0.11658907  0.39190356  0.55411342    -0.06500
C570        C  0.03913424  0.27148392  0.57157096     0.92700
O571        O  0.02030832  0.28622561  0.67311890    -0.82700
C572        C  0.01797820  0.29083685  0.70387057     0.92800
O573        O  0.19685700  0.31958054  0.56096996    -0.82700
Mg574      Mg  0.16412698  0.42848228  0.64274396     1.58200
O575        O  0.03726981  0.27705290  0.60245256    -0.81000
O576        O  0.15682817  0.43782226  0.73454235    -0.82700
O577        O  0.58995888  0.10707895  0.33189770    -0.88300
C578        C  0.54174896  0.12234199  0.41842755     0.87700
Mg579      Mg  0.61906822  0.06402997  0.32441296     1.58100
O580        O  0.61335566  0.16983113  0.41052578    -0.88000
O581        O  0.59816481  0.16057133  0.33419586    -0.75400
C582        C  0.70330614  0.04547979  0.46899744     0.92800
O583        O  0.55791461  0.05438074  0.37960081    -0.75200
O584        O  0.69563614  0.02716005  0.44399495    -0.82700
Mg585      Mg  0.54080079  0.09920199  0.34867799     1.58000
C586        C  0.68236579  0.17722575  0.48694857     0.92700
O587        O  0.51932349  0.14625286  0.31708933    -0.80900
H588        H  0.64072362  0.20132946  0.38419515    -0.06300
C589        C  0.62042582  0.08639975  0.46388760     0.87600
O590        O  0.66571664  0.09234947  0.33910633    -0.75500
O591        O  0.55224742  0.13068746  0.39076262    -0.88200
O592        O  0.65273472  0.18659345  0.48089821    -0.81000
C593        C  0.54278190  0.20996025  0.45296118     0.92800
C594        C  0.51505097  0.17703463  0.32460081     0.92700
Mg595      Mg  0.68064700  0.11781180  0.43467234     1.58000
O596        O  0.69772733  0.07621082  0.46862825    -0.81000
O597        O  0.66646411  0.16342693  0.40392844    -0.75200
O598        O  0.53982577  0.20031159  0.42314940    -0.81000
O599        O  0.52907335  0.05844025  0.30787252    -0.82700
O600        O  0.68330685  0.01406682  0.35671677    -0.81100
C601        C  0.64002907  0.17934492  0.39926645     0.87100
O602        O  0.67088087  0.08658301  0.39313791    -0.88200
O603        O  0.63163725  0.11249061  0.45248970    -0.88300
O604        O  0.62521510  0.05851644  0.44988894    -0.75400
Mg605      Mg  0.57083817  0.17869895  0.38078759     1.58000
O606        O  0.56850739  0.20289329  0.46986057    -0.82700
H607        H  0.61421971  0.13148374  0.29643310    -0.06500
O608        O  0.61137352  0.04853632  0.37431479    -0.88000
H609        H  0.58380848  0.01742938  0.40088921    -0.06300
H610        H  0.70441396  0.10974866  0.36537888    -0.06500
C611        C  0.58455070  0.03906473  0.38531784     0.87100
C612        C  0.60088919  0.13282279  0.31963503     0.87700
C613        C  0.68152593  0.09631197  0.36601615     0.87700
H614        H  0.60562799  0.08737431  0.48617917    -0.06400
O615        O  0.55697859  0.12909008  0.44523339    -0.75500
Mg616      Mg  0.65396232  0.03800882  0.40440345     1.58000
H617        H  0.51914641  0.10847914  0.41985716    -0.06500
C618        C  0.54616667  0.03246877  0.30148544     0.92700
O619        O  0.64896762  0.02075370  0.31423972    -0.82700
C620        C  0.67449219  0.00833324  0.32640803     0.92800
O621        O  0.52842574  0.19003762  0.34963774    -0.82700
Mg622      Mg  0.60398008  0.15748288  0.46107401     1.58200
O623        O  0.57661553  0.03179686  0.30725709    -0.81000
O624        O  0.69337394  0.15010877  0.47637418    -0.82700
C625        C  0.49598587  0.26267381  0.51166748     0.80300
N626        N  0.46631532  0.26472169  0.49718606    -0.78000
C627        C  0.46039339  0.25017959  0.46768607     0.82700
N628        N  0.48547129  0.23317812  0.45234973    -0.78000
C629        C  0.51542713  0.22972771  0.46785656     0.82800
N630        N  0.52037143  0.24490667  0.49747981    -0.79700
O631        O  0.35728560  0.29859278  0.40931359    -0.88300
C632        C  0.35742560  0.38381173  0.46026132     0.87700
Mg633      Mg  0.39743641  0.28483368  0.37834020     1.58100
O634        O  0.30113567  0.38274325  0.39410400    -0.88000
O635        O  0.30402729  0.30630974  0.40890049    -0.75400
C636        C  0.42332251  0.42288837  0.28604813     0.92800
O637        O  0.41681127  0.33777282  0.43933716    -0.75200
O638        O  0.43925073  0.39667003  0.29415282    -0.82700
Mg639      Mg  0.36914136  0.31206081  0.45844272     1.58000
C640        C  0.29912207  0.45876994  0.32510861     0.92700
O641        O  0.31821055  0.28454477  0.47685758    -0.80900
H642        H  0.26641635  0.35806556  0.36946882    -0.06300
C643        C  0.39068031  0.42524262  0.37571679     0.87600
O644        O  0.36871173  0.30090627  0.33219491    -0.75500
O645        O  0.34431901  0.35829291  0.44981286    -0.88200
O646        O  0.29384380  0.45596385  0.35660666    -0.81000
C647        C  0.27554232  0.42891360  0.46966733     0.92800
C648        C  0.29119165  0.29766835  0.48714846     0.92700
Mg649      Mg  0.35070544  0.39790888  0.31975982     1.58000
O650        O  0.39376728  0.42702205  0.29543190    -0.81000
O651        O  0.30448725  0.37243768  0.34039802    -0.75200
O652        O  0.28015697  0.39814983  0.47042081    -0.81000
O653        O  0.40347132  0.26645820  0.46806448    -0.82700
O654        O  0.44868152  0.31009079  0.31128094    -0.81100
C655        C  0.28951686  0.37108155  0.36817850     0.87100
O656        O  0.37891629  0.35380863  0.32679839    -0.88200
O657        O  0.36269302  0.41594854  0.36836353    -0.88300
O658        O  0.41610282  0.40854256  0.36821327    -0.75400
Mg659      Mg  0.29417511  0.35448994  0.43858349     1.58000
O660        O  0.28404897  0.44592211  0.44401862    -0.82700
H661        H  0.32651609  0.26712549  0.38704261    -0.06500
O662        O  0.41885962  0.33272120  0.38464653    -0.88000
H663        H  0.45403843  0.35537393  0.41070605    -0.06300
H664        H  0.35221845  0.32851991  0.29384281    -0.06500
C665        C  0.43091822  0.34234437  0.41128691     0.87100
C666        C  0.32939789  0.28960656  0.40123923     0.87700
C667        C  0.36645198  0.32790635  0.31639740     0.87700
H668        H  0.39361294  0.44802909  0.38939799    -0.06400
O669        O  0.35346497  0.41145051  0.44601004    -0.75500
Mg670      Mg  0.42933154  0.36053554  0.33967091     1.58000
H671        H  0.37317610  0.38247810  0.48171646    -0.06500
C672        C  0.42923770  0.25974878  0.45086318     0.92700
O673        O  0.43721596  0.26893233  0.34613765    -0.82700
C674        C  0.45162927  0.27970204  0.32068314     0.92800
O675        O  0.28767449  0.32835122  0.48627667    -0.82700
Mg676      Mg  0.32306559  0.43075826  0.40195837     1.52600
O677        O  0.43033730  0.26607026  0.42012873    -0.81000
O678        O  0.32036667  0.44162652  0.31005323    -0.82700
C679        C  0.48807687  0.47014527  0.24151875     0.80300
N680        N  0.47177862  0.44601560  0.25793256    -0.78000
C681        C  0.43977155  0.44974726  0.26616464     0.82700
N682        N  0.42414772  0.47860743  0.25733416    -0.78000
C683        C  0.44094821  0.50337125  0.24096739     0.82800
N684        N  0.47287331  0.49860044  0.23337325    -0.79700
C685        C  0.46417322  0.74716046  0.00750859     0.80300
N686        N  0.49196089  0.75812107  0.02218497    -0.78000
C687        C  0.49543020  0.75650906  0.05549845     0.82700
N688        N  0.47023185  0.74314059  0.07416883    -0.78000
C689        C  0.44197366  0.73181367  0.05919911     0.82800
N690        N  0.43947789  0.73407002  0.02578412    -0.79700
O691        O  0.34793740  0.67630630  0.12723490    -0.88300
C692        C  0.33136672  0.59183059  0.07645400     0.87700
Mg693      Mg  0.39322414  0.68259869  0.15301247     1.58100
O694        O  0.29188015  0.59635463  0.15339356    -0.88000
O695        O  0.29583740  0.67259409  0.14036049    -0.75400
C696        C  0.42461027  0.53402697  0.22823030     0.92800
O697        O  0.39895558  0.63330297  0.08634917    -0.75200
O698        O  0.44144527  0.55897905  0.21793680    -0.82700
Mg699      Mg  0.35147212  0.66268260  0.07605937     1.58000
C700        C  0.29169212  0.51960168  0.22091653     0.92700
O701        O  0.30144500  0.69246743  0.06049784    -0.80900
H702        H  0.26355407  0.62041683  0.18607052    -0.06300
C703        C  0.37433111  0.54317829  0.14869231     0.87600
O704        O  0.37024284  0.66354887  0.20143323    -0.75500
O705        O  0.32337844  0.61878652  0.08880483    -0.88200
O706        O  0.27775314  0.52933321  0.19395638    -0.81000
C707        C  0.24744706  0.55507266  0.08353224     0.92800
C708        C  0.27107484  0.68341700  0.05863898     0.92700
Mg709      Mg  0.35029481  0.56725800  0.21431601     1.58000
O710        O  0.39366600  0.53392250  0.22614983    -0.81000
O711        O  0.30309224  0.59817514  0.20671107    -0.75200
O712        O  0.25564586  0.58505540  0.08096076    -0.81000
O713        O  0.38802599  0.70661469  0.06323998    -0.82700
O714        O  0.45457441  0.64513422  0.20599190    -0.81100
C715        C  0.28511227  0.60548696  0.18199980     0.87100
O716        O  0.37957757  0.61012155  0.20460267    -0.88200
O717        O  0.35020630  0.55430538  0.16361889    -0.88300
O718        O  0.40235425  0.55683716  0.15051027    -0.75400
Mg719      Mg  0.27732632  0.62652595  0.11272914     1.58000
O720        O  0.25501243  0.53848874  0.10953054    -0.82700
H721        H  0.32525981  0.71026080  0.15511275    -0.06500
O722        O  0.40904302  0.63369222  0.13996774    -0.88000
H723        H  0.43873977  0.61174643  0.10710702    -0.06300
H724        H  0.35809605  0.63556235  0.24122241    -0.06500
C725        C  0.41664620  0.62585325  0.11120515     0.87100
C726        C  0.32322460  0.68759238  0.14106789     0.87700
C727        C  0.36945188  0.63626232  0.21695011     0.87700
H728        H  0.37136757  0.52163068  0.13310974    -0.06400
O729        O  0.32640527  0.56441566  0.09130336    -0.75500
Mg730      Mg  0.42532216  0.60048981  0.17917813     1.58000
H731        H  0.34317488  0.59154681  0.05239125    -0.06500
C732        C  0.41508965  0.71421746  0.07785666     0.92700
O733        O  0.43833997  0.69125166  0.18074248    -0.82700
C734        C  0.45725997  0.67634202  0.20031561     0.92800
O735        O  0.26065891  0.65770010  0.07256336    -0.82700
Mg736      Mg  0.30273903  0.54694794  0.14114052     1.58200
O737        O  0.42029822  0.70551866  0.10770756    -0.81000
O738        O  0.32216982  0.52206945  0.22443658    -0.82700
C739        C  0.25485407  0.49204890  0.53318638     0.80300
N740        N  0.24055049  0.47425348  0.55763499    -0.78000
C741        C  0.23639695  0.44128007  0.55424849     0.82700
N742        N  0.24700442  0.42626580  0.52537067    -0.78000
C743        C  0.26136275  0.44453350  0.50032536     0.82800
N744        N  0.26491697  0.47738974  0.50468130    -0.79700
O745        O  0.58727506  0.85047316  0.20373770    -0.88300
C746        C  0.53489124  0.85263622  0.11955794     0.87700
Mg747      Mg  0.61701294  0.89112761  0.21800250     1.58100
O748        O  0.60090347  0.79647597  0.11610608    -0.88000
O749        O  0.58835885  0.79723541  0.19347421    -0.75400
C750        C  0.70232290  0.92400749  0.07716765     0.92800
O751        O  0.55412604  0.91153986  0.16922587    -0.75200
O752        O  0.69408372  0.93909383  0.10413915    -0.82700
Mg753      Mg  0.53820567  0.86173838  0.19313782     1.58000
C754        C  0.66842918  0.79892925  0.03804320     0.92700
O755        O  0.52336811  0.80916728  0.21903264    -0.80900
H756        H  0.62672715  0.76185319  0.13946693    -0.06300
C757        C  0.61499071  0.88838002  0.07649967     0.87600
O758        O  0.66265058  0.86403645  0.19899503    -0.75500
O759        O  0.54629813  0.83924835  0.14450635    -0.88200
O760        O  0.63748350  0.79240479  0.04086284    -0.81000
C761        C  0.52559792  0.77118676  0.07102847     0.92800
C762        C  0.51281578  0.78301516  0.20435373     0.92700
Mg763      Mg  0.67247126  0.84916056  0.10089924     1.58000
O764        O  0.69456156  0.89391673  0.07247088    -0.81000
O765        O  0.65389407  0.80141320  0.12552453    -0.75200
O766        O  0.52498064  0.77573129  0.10210031    -0.81000
O767        O  0.52971797  0.89269793  0.24211897    -0.82700
O768        O  0.68078384  0.94437563  0.19130429    -0.81100
C769        C  0.62702776  0.78540867  0.12700855     0.87100
O770        O  0.66542416  0.87601005  0.14604602    -0.88200
O771        O  0.62389334  0.86022697  0.08418657    -0.88300
O772        O  0.62163814  0.91363859  0.09420439    -0.75400
Mg773      Mg  0.55757984  0.78875087  0.14571343     1.58000
O774        O  0.55084024  0.77986202  0.05367162    -0.82700
H775        H  0.61101194  0.81870605  0.23291363    -0.06500
O776        O  0.60817190  0.91406295  0.17123436    -0.88000
H777        H  0.58094551  0.95032790  0.15220815    -0.06300
H778        H  0.69989600  0.84957408  0.16883447    -0.06500
C779        C  0.58132100  0.92636649  0.16385179     0.87100
C780        C  0.59613314  0.82223381  0.21108499     0.87700
C781        C  0.67720866  0.86310809  0.17107534     0.87700
H782        H  0.60052787  0.89155110  0.05432818    -0.06400
O783        O  0.54793686  0.84896996  0.09100733    -0.75500
Mg784      Mg  0.65105279  0.92642270  0.14165488     1.58000
H785        H  0.51348713  0.86809862  0.12210740    -0.06500
C786        C  0.54618376  0.91850738  0.25030959     0.92700
O787        O  0.64856278  0.93134499  0.23424649    -0.82700
C788        C  0.67312915  0.94618343  0.22246517     0.92800
O789        O  0.51103726  0.78235261  0.17333290    -0.82700
Mg790      Mg  0.59178369  0.81979891  0.06886012     1.58200
O791        O  0.57561276  0.92202253  0.24085660    -0.81000
O792        O  0.68238011  0.82019434  0.05610220    -0.82700
C793        C  0.70070250  0.74479606  0.97074390     0.80300
N794        N  0.73259196  0.75466111  0.96888386    -0.78000
C795        C  0.74401311  0.77853880  0.98937793     0.82700
N796        N  0.72253389  0.79264209  0.01131390    -0.78000
C797        C  0.69059087  0.78242129  0.01378827     0.82800
N798        N  0.67975735  0.75839575  0.99320271    -0.79700
O799        O  0.88481744  0.11661786  0.70499740    -0.88300
C800        C  0.92733699  0.12680598  0.61381744     0.87700
Mg801      Mg  0.85524980  0.07409509  0.71544088     1.58100
O802        O  0.85833107  0.17831484  0.62245169    -0.88000
O803        O  0.87608111  0.16982607  0.69841784    -0.75400
C804        C  0.75727416  0.05491644  0.58164981     0.92800
O805        O  0.91132020  0.06087571  0.65596492    -0.75200
O806        O  0.76549762  0.03978902  0.60830316    -0.82700
Mg807      Mg  0.93231940  0.10615843  0.68400219     1.58000
C808        C  0.78507964  0.18232995  0.54947030     0.92700
O809        O  0.95891570  0.15307980  0.71099853    -0.80900
H810        H  0.83438766  0.21331754  0.64776126    -0.06300
C811        C  0.84309101  0.09135620  0.57510234     0.87600
O812        O  0.80841192  0.10408820  0.70377263    -0.75500
O813        O  0.91885619  0.13688703  0.64163755    -0.88200
O814        O  0.81561028  0.19080251  0.55174481    -0.81000
C815        C  0.92854609  0.21354967  0.57478121     0.92800
C816        C  0.96202667  0.18392494  0.70348086     0.92700
Mg817      Mg  0.78768194  0.12788762  0.60733939     1.58000
O818        O  0.76566249  0.08468969  0.57695537    -0.81000
O819        O  0.80572162  0.17489526  0.63354578    -0.75200
O820        O  0.93199830  0.20670270  0.60542605    -0.81000
O821        O  0.94567702  0.06655843  0.72610046    -0.82700
O822        O  0.78500981  0.03320637  0.69229720    -0.81100
C823        C  0.83300247  0.19005725  0.63464989     0.87100
O824        O  0.80003337  0.09938797  0.65009333    -0.88200
O825        O  0.83478890  0.11887513  0.58579074    -0.88300
O826        O  0.83759620  0.06477054  0.59117600    -0.75400
Mg827      Mg  0.90211156  0.18630379  0.65048112     1.58000
O828        O  0.90241563  0.20473941  0.55907672    -0.82700
H829        H  0.86111880  0.14395628  0.73871543    -0.06500
O830        O  0.85832533  0.05840496  0.66542542    -0.88000
H831        H  0.88177447  0.02472689  0.63787526    -0.06300
H832        H  0.76974653  0.12461270  0.67993193    -0.06500
C833        C  0.88351620  0.04693588  0.65268677     0.87100
C834        C  0.87403158  0.14336823  0.71524444     0.87700
C835        C  0.79164901  0.10981301  0.67779948     0.87700
H836        H  0.85572832  0.08985493  0.55151733    -0.06400
O837        O  0.91076790  0.13265956  0.58772157    -0.75500
Mg838      Mg  0.81207734  0.04960294  0.64071640     1.58000
H839        H  0.94925831  0.11203688  0.61167742    -0.06500
C840        C  0.92824898  0.04174581  0.73580181     0.92700
O841        O  0.82662416  0.02977284  0.72737842    -0.82700
C842        C  0.79694246  0.02500922  0.72068736     0.92800
O843        O  0.94522357  0.19711253  0.68086828    -0.82700
Mg844      Mg  0.86440013  0.16177930  0.57239806     1.58200
O845        O  0.89761742  0.04133928  0.73121904    -0.81000
O846        O  0.77350471  0.15812238  0.56523434    -0.82700
C847        C  0.73588936  0.02413426  0.78827872     0.80300
N848        N  0.74933939  0.02854570  0.75767432    -0.78000
C849        C  0.77730414  0.01297964  0.74913940     0.82700
N850        N  0.79185589  0.99331026  0.77206866    -0.78000
C851        C  0.77836867  0.98820593  0.80274374     0.82800
N852        N  0.75006920  0.00380189  0.81088308    -0.79700
O853        O  0.84598226  0.80001500  0.90589000    -0.88300
C854        C  0.84381247  0.88311282  0.96085270     0.87700
Mg855      Mg  0.88860904  0.78788453  0.87687180     1.58100
O856        O  0.79239805  0.88615798  0.89098953    -0.88000
O857        O  0.79303600  0.80914128  0.90219263    -0.75400
C858        C  0.92222513  0.93066768  0.79397785     0.92800
O859        O  0.90386808  0.83621859  0.94208630    -0.75200
O860        O  0.93738475  0.90416597  0.80260180    -0.82700
Mg861      Mg  0.85443871  0.81069502  0.95649482     1.58000
C862        C  0.79499861  0.96492526  0.82546453     0.92700
O863        O  0.80181497  0.78373690  0.97113195    -0.80900
H864        H  0.75957076  0.86273128  0.86272824    -0.06300
C865        C  0.88297280  0.92848122  0.88162321     0.87600
O866        O  0.86336884  0.80709102  0.82988963    -0.75500
O867        O  0.83102763  0.85813373  0.94872379    -0.88200
O868        O  0.78705369  0.96093990  0.85625321    -0.81000
C869        C  0.76182841  0.92981450  0.96660193     0.92800
C870        C  0.77438107  0.79690935  0.98026357     0.92700
Mg871      Mg  0.84719917  0.90453391  0.82119431     1.58000
O872        O  0.89199085  0.93456548  0.80100446    -0.81000
O873        O  0.79962230  0.87831360  0.83724886    -0.75200
O874        O  0.76631082  0.89894355  0.96699263    -0.81000
O875        O  0.88668902  0.76317706  0.96550948    -0.82700
O876        O  0.94445919  0.81725691  0.81465667    -0.81100
C877        C  0.78269333  0.87572267  0.86375862     0.87100
O878        O  0.87452680  0.86004811  0.82793893    -0.88200
O879        O  0.85561118  0.92013005  0.87132448    -0.88300
O880        O  0.90872944  0.91180929  0.87539080    -0.75400
Mg881      Mg  0.78175424  0.85613756  0.93351129     1.58000
O882        O  0.77186091  0.94724221  0.94185413    -0.82700
H883        H  0.81613430  0.77055521  0.87986073    -0.06500
O884        O  0.90977373  0.83501068  0.88748782    -0.88000
H885        H  0.94337202  0.85494409  0.91758719    -0.06300
H886        H  0.84988179  0.83683069  0.79195317    -0.06500
C887        C  0.92003409  0.84247839  0.91554051     0.87100
C888        C  0.81852415  0.79220225  0.89540571     0.87700
C889        C  0.86253802  0.83487471  0.81537703     0.87700
H890        H  0.88498613  0.95033740  0.89692335    -0.06400
O891        O  0.84085503  0.91140805  0.94755556    -0.75500
Mg892      Mg  0.92373017  0.86556211  0.84504309     1.58000
H893        H  0.85830999  0.88076954  0.98310879    -0.06500
C894        C  0.91330694  0.75583490  0.94993988     0.92700
O895        O  0.93091058  0.77385505  0.84587642    -0.82700
C896        C  0.94681963  0.78632161  0.82203218     0.92800
O897        O  0.77047679  0.82754943  0.97863119    -0.82700
Mg898      Mg  0.81361388  0.93355507  0.90243837     1.58200
O899        O  0.91782410  0.76516713  0.92020934    -0.81000
O900        O  0.81772175  0.94854998  0.81186715    -0.82700
O901        O  0.10498850  0.67759521  0.91537056    -0.88300
C902        C  0.11504385  0.59052145  0.96243057     0.87700
Mg903      Mg  0.06449033  0.68602683  0.88324280     1.58100
O904        O  0.16818088  0.59727997  0.89356567    -0.88000
O905        O  0.15840403  0.67339912  0.90895643    -0.75400
C906        C  0.05076154  0.54536523  0.79196303     0.92800
O907        O  0.04985946  0.62953445  0.94236727    -0.75200
O908        O  0.03356965  0.57116914  0.79851384    -0.82700
Mg909      Mg  0.09329736  0.65946340  0.96379856     1.58000
C910        C  0.17725578  0.52068495  0.82390727     0.92700
O911        O  0.13861116  0.68931690  0.99037980    -0.80900
H912        H  0.20287879  0.62241078  0.86920067    -0.06300
C913        C  0.08450378  0.54683402  0.87876761     0.87600
O914        O  0.09626411  0.67220367  0.83784223    -0.75500
O915        O  0.12485980  0.61782906  0.95287106    -0.88200
O916        O  0.18428261  0.52548584  0.85481216    -0.81000
C917        C  0.19952132  0.55404454  0.96786929     0.92800
C918        C  0.16900936  0.68174963  0.99528418     0.92700
Mg919      Mg  0.12125506  0.57644253  0.82162507     1.58000
O920        O  0.08046873  0.54356656  0.80074089    -0.81000
O921        O  0.16638610  0.60527945  0.83969728    -0.75200
O922        O  0.19232806  0.58442452  0.96952210    -0.81000
O923        O  0.05225591  0.69998636  0.97401038    -0.82700
O924        O  0.01969163  0.65597886  0.81393606    -0.81100
C925        C  0.18033965  0.60845676  0.86771518     0.87100
O926        O  0.09070816  0.61863978  0.83051032    -0.88200
O927        O  0.11151188  0.55796521  0.87012605    -0.88300
O928        O  0.05770633  0.56148248  0.87215088    -0.75400
Mg929      Mg  0.17404348  0.62693910  0.93711826     1.58000
O930        O  0.19369454  0.53708332  0.94146206    -0.82700
H931        H  0.13169910  0.71204477  0.89236933    -0.06500
O932        O  0.04829672  0.63632413  0.88819270    -0.88000
H933        H  0.01505357  0.60937877  0.91265002    -0.06300
H934        H  0.11700199  0.64684989  0.79966678    -0.06500
C935        C  0.03669768  0.62470417  0.91412296     0.87100
C936        C  0.13155039  0.68890316  0.90558938     0.87700
C937        C  0.10159039  0.64576462  0.82151780     0.87700
H938        H  0.08366493  0.52421589  0.89285184    -0.06400
O939        O  0.12182075  0.56391868  0.94694540    -0.75500
Mg940      Mg  0.04099138  0.60792736  0.84332649     1.58000
H941        H  0.09966757  0.58928258  0.98429808    -0.06500
C942        C  0.02765362  0.70696201  0.95527941     0.92700
O943        O  0.02398962  0.69741476  0.85027192    -0.82700
C944        C  0.01314591  0.68573157  0.82346385     0.92800
O945        O  0.18257324  0.65800990  0.98035490    -0.82700
Mg946      Mg  0.15288740  0.54746427  0.90162878     1.58200
O947        O  0.02900668  0.70203042  0.92425110    -0.81000
O948        O  0.15310557  0.53444958  0.81034157    -0.82700
C949        C  0.98961774  0.74024610  0.75420866     0.80300
N950        N  0.97335210  0.76485979  0.77046420    -0.78000
C951        C  0.96763056  0.76226271  0.80352337     0.82700
N952        N  0.97850726  0.73487220  0.81972312    -0.78000
C953        C  0.99475431  0.71011526  0.80356197     0.82800
N954        N  0.00038199  0.71313724  0.77064479    -0.79700
C955        C  0.98826964  0.49243652  0.75249926     0.80300
N956        N  0.00419553  0.46374674  0.74719053    -0.78000
C957        C  0.03606759  0.46042574  0.75517526     0.82700
N958        N  0.05220431  0.48715474  0.76885385    -0.78000
C959        C  0.03560195  0.51628933  0.77493121     0.82800
N960        N  0.00372456  0.51852593  0.76625007    -0.79700
C961        C  0.24791895  0.48816230  0.77609735     0.80300
N962        N  0.23286639  0.47339466  0.74982514    -0.78000
C963        C  0.19976864  0.47190731  0.74884902     0.82700
N964        N  0.18223895  0.48547526  0.77442549    -0.78000
C965        C  0.19721052  0.50032589  0.80082427     0.82800
N966        N  0.23028015  0.50171447  0.80138100    -0.79700
C967        C  0.72099946  0.98512697  0.53562854     0.80300
N968        N  0.71245865  0.99830080  0.50601842    -0.78000
C969        C  0.71668195  0.03102525  0.50040814     0.82700
N970        N  0.73018017  0.05037293  0.52516606    -0.78000
C971        C  0.73930036  0.03660976  0.55496275     0.82800
N972        N  0.73442162  0.00407045  0.55957480    -0.79700
C973        C  0.97965365  0.24782419  0.50607180     0.80300
N974        N  0.00688690  0.25865071  0.52183160    -0.78000
C975        C  0.00961539  0.25623154  0.55512981     0.82700
N976        N  0.98398375  0.24234107  0.57282608    -0.78000
C977        C  0.95622549  0.23096383  0.55683798     0.82800
N978        N  0.95452024  0.23408181  0.52335064    -0.79700
C979        C  0.02659956  0.21897412  0.75854164     0.80300
N980        N  0.02817658  0.25063212  0.74761833    -0.78000
C981        C  0.00846836  0.26101991  0.72296226     0.82700
N982        N  0.98747413  0.23872182  0.70903498    -0.78000
C983        C  0.98514308  0.20693524  0.72026087     0.82800
N984        N  0.00512245  0.19702752  0.74508187    -0.79700
C985        C  0.53002840  0.70498396  0.24751820     0.80300
N986        N  0.53026869  0.73779898  0.24044450    -0.78000
C987        C  0.50695124  0.75082696  0.22063423     0.82700
N988        N  0.48371641  0.73026976  0.20782236    -0.78000
C989        C  0.48271180  0.69750379  0.21561748     0.82800
N990        N  0.50605442  0.68494494  0.23560859    -0.79700
C991        C  0.74087074  0.98838588  0.26739208     0.80300
N992        N  0.72591442  0.99731271  0.29634282    -0.78000
C993        C  0.69398108  0.98969496  0.30148284     0.82700
N994        N  0.67740508  0.97370381  0.27678222    -0.78000
C995        C  0.69216549  0.96501152  0.24754169     0.82800
N996        N  0.72407414  0.97260522  0.24293509    -0.79700
C997        C  0.21157757  0.74955416  0.04046637     0.80300
N998        N  0.18761579  0.73271372  0.02412781    -0.78000
C999        C  0.19181104  0.70033261  0.01717033     0.82700
N1000       N  0.22036451  0.68547019  0.02644909    -0.78000
C1001       C  0.24479428  0.70236958  0.04211736     0.82800
N1002       N  0.24006165  0.73459139  0.04925879    -0.79700
C1003       C  0.73467409  0.24823724  0.51074023     0.80300
N1004       N  0.70817561  0.23072477  0.50025066    -0.78000
C1005       C  0.70714570  0.19772326  0.50440301     0.82700
N1006       N  0.73327082  0.18260566  0.51886628    -0.78000
C1007       C  0.76010338  0.19989158  0.52939815     0.82800
N1008       N  0.76070753  0.23302186  0.52518660    -0.79700
C1009       C  0.23997166  0.52175565  0.29632231     0.80300
N1010       N  0.24912865  0.52585923  0.26400965    -0.78000
C1011       C  0.27439778  0.50814138  0.25128367     0.82700
N1012       N  0.29034038  0.48671624  0.27169362    -0.78000
C1013       C  0.28091467  0.48220088  0.30394725     0.82800
N1014       N  0.25563176  0.49994407  0.31613974    -0.79700
C1015       C  0.22032624  0.48839205  0.02748904     0.80300
N1016       N  0.21193363  0.50432473  0.99938750    -0.78000
C1017       C  0.21247229  0.53767456  0.99831445     0.82700
N1018       N  0.22253988  0.55500718  0.02604360    -0.78000
C1019       C  0.23154015  0.53852786  0.05447151     0.82800
N1020       N  0.23026331  0.50531266  0.05456461    -0.79700
C1021       C  0.48651768  0.96417237  0.30250094     0.80300
N1022       N  0.50126624  0.94006880  0.28463061    -0.78000
C1023       C  0.53105651  0.94541207  0.27072677     0.82700
N1024       N  0.54591356  0.97575642  0.27499894    -0.78000
C1025       C  0.53003911  0.00068781  0.29189915     0.82800
N1026       N  0.50042534  0.99431064  0.30541898    -0.79700
C1027       C  0.49155902  0.23006435  0.25394009     0.80300
N1028       N  0.50184786  0.20304144  0.27094711    -0.78000
C1029       C  0.49649107  0.20101803  0.30408557     0.82700
N1030       N  0.48128612  0.22682167  0.31970360    -0.78000
C1031       C  0.47105331  0.25411299  0.30280150     0.82800
N1032       N  0.47642425  0.25557388  0.26974279    -0.79700
C1033       C  0.21932555  0.24324549  0.47716146     0.80300
N1034       N  0.19726057  0.25674085  0.49868437    -0.78000
C1035       C  0.20670856  0.28184901  0.51879934     0.82700
N1036       N  0.23833781  0.29316375  0.51669724    -0.78000
C1037       C  0.26081187  0.27914509  0.49574507     0.82800
N1038       N  0.25082028  0.25422561  0.47585510    -0.79700
C1039       C  0.95970740  0.71258762  0.01573602     0.80300
N1040       N  0.93536357  0.72767968  0.99890550    -0.78000
C1041       C  0.94020993  0.73724653  0.96700179     0.82700
N1042       N  0.97039903  0.73157995  0.95230136    -0.78000
C1043       C  0.99540650  0.71720359  0.97008048     0.82800
N1044       N  0.98940601  0.70801334  0.00159929    -0.79700
C1045       C  0.73432539  0.99362965  0.02684857     0.80300
N1046       N  0.74651647  0.97859130  0.99940123    -0.78000
C1047       C  0.74573693  0.94537958  0.99640727     0.82700
N1048       N  0.73211142  0.92709209  0.02184609    -0.78000
C1049       C  0.71967460  0.94238872  0.04984531     0.82800
N1050       N  0.72111365  0.97572591  0.05188064    -0.79700
C1051       C  0.99120689  0.98050663  0.75980856     0.80300
N1052       N  0.97350318  0.95571642  0.77357668    -0.78000
C1053       C  0.94048005  0.95816031  0.77657301     0.82700
N1054       N  0.92536680  0.98638931  0.76511287    -0.78000
C1055       C  0.94353702  0.01169620  0.75118685     0.82800
N1056       N  0.97635714  0.00818938  0.74887235    -0.79700
C1057       C  0.65040226  0.48728286  0.21127963     0.17100
C1058       C  0.63660817  0.49141227  0.24283121    -0.12000
C1059       C  0.60377509  0.48371564  0.24814069    -0.12900
C1060       C  0.58472652  0.47181449  0.22192424     0.18600
C1061       C  0.59854894  0.46730574  0.19037867    -0.14900
C1062       C  0.63150780  0.47499743  0.18505826    -0.13200
C1063       C  0.55051599  0.46668168  0.22722507    -0.00400
C1064       C  0.52178302  0.46623180  0.23338048    -0.33200
C1065       C  0.68397077  0.49584950  0.20618202     0.01000
C1066       C  0.71242655  0.50294047  0.20429946    -0.34900
H1067       H  0.65114607  0.50088487  0.26320394     0.12000
H1068       H  0.59310051  0.48755341  0.27251535     0.11900
H1069       H  0.58379327  0.45839023  0.16992542     0.11700
H1070       H  0.64212562  0.47172239  0.16058518     0.10700
C1071       C  0.72900816  0.34222385  0.48062741     0.17100
C1072       C  0.71038744  0.36575118  0.49763827    -0.12000
C1073       C  0.70577151  0.39675197  0.48373398    -0.12900
C1074       C  0.71966883  0.40410125  0.45281089     0.18600
C1075       C  0.73771430  0.38034564  0.43546359    -0.14900
C1076       C  0.74228285  0.34928323  0.44935868    -0.13200
C1077       C  0.71907117  0.43731534  0.44152275    -0.00400
C1078       C  0.72124246  0.46658875  0.43877471    -0.33200
C1079       C  0.73367594  0.31043193  0.49472413     0.01000
C1080       C  0.73569909  0.28255679  0.50408615    -0.34900
H1081       H  0.69984948  0.36027489  0.52172374     0.12000
H1082       H  0.69221747  0.41528678  0.49748424     0.11900
H1083       H  0.74893514  0.38611421  0.41176962     0.11700
H1084       H  0.75648021  0.33096711  0.43599980     0.10700
C1085       C  0.90257647  0.47911601  0.70983983     0.17100
C1086       C  0.89349595  0.49233563  0.67925291    -0.12000
C1087       C  0.86608024  0.47982978  0.66297463    -0.12900
C1088       C  0.84823480  0.45395204  0.67721987     0.18600
C1089       C  0.85837946  0.43981088  0.70704028    -0.14900
C1090       C  0.88561002  0.45238002  0.72333635    -0.13200
C1091       C  0.81519137  0.44910634  0.66759891    -0.00400
C1092       C  0.78643838  0.45374368  0.67002359    -0.33200
C1093       C  0.93044744  0.49136574  0.72681627     0.01000
C1094       C  0.95601475  0.49549615  0.74041328    -0.34900
H1095       H  0.90697310  0.51276200  0.66855783     0.12000
H1096       H  0.85765253  0.49160460  0.64048626     0.11900
H1097       H  0.84399977  0.42058632  0.71877065     0.11700
H1098       H  0.89293008  0.44184516  0.74684091     0.10700
C1099       C  0.34581500  0.50066610  0.77285717     0.17100
C1100       C  0.35755249  0.52706450  0.75395504    -0.12000
C1101       C  0.39113859  0.53104203  0.74935217    -0.12900
C1102       C  0.41274145  0.50861458  0.76373764     0.18600
C1103       C  0.40103321  0.48266821  0.78323749    -0.14900
C1104       C  0.36747002  0.47868047  0.78782147    -0.13200
C1105       C  0.44679508  0.51069775  0.75674091    -0.00400
C1106       C  0.47531549  0.50984650  0.75015418    -0.33200
C1107       C  0.31149111  0.49528763  0.77552945     0.01000
C1108       C  0.28249917  0.49123755  0.77627324    -0.34900
H1109       H  0.34076321  0.54405829  0.74226225     0.12000
H1110       H  0.40019560  0.55102564  0.73406132     0.11900
H1111       H  0.41777975  0.46515652  0.79420668     0.11700
H1112       H  0.35840145  0.45816562  0.80237337     0.10700
C1113       C  0.73455707  0.89055103  0.55789264     0.17100
C1114       C  0.76827036  0.88426273  0.55843766    -0.12000
C1115       C  0.77946642  0.85196418  0.56104110    -0.12900
C1116       C  0.75685824  0.82617842  0.56339777     0.18600
C1117       C  0.72324139  0.83280020  0.56556679    -0.14900
C1118       C  0.71204377  0.86505732  0.56272305    -0.13200
C1119       C  0.76653015  0.79369181  0.55431109    -0.00400
C1120       C  0.76703210  0.76868987  0.53850455    -0.33200
C1121       C  0.72350898  0.92264597  0.54916912     0.01000
C1122       C  0.71905357  0.95068596  0.54129977    -0.34900
H1123       H  0.78577254  0.90404258  0.55472454     0.12000
H1124       H  0.80541961  0.84694401  0.55858973     0.11900
H1125       H  0.70559554  0.81282452  0.56661477     0.11700
H1126       H  0.68595058  0.86983335  0.56228274     0.10700
C1127       C  0.51550786  0.72553565  0.38632240     0.17100
C1128       C  0.53990079  0.74429163  0.37089378    -0.12000
C1129       C  0.55798431  0.73072160  0.34489093    -0.12900
C1130       C  0.55173742  0.69836969  0.33443624     0.18600
C1131       C  0.52860967  0.67902142  0.35120311    -0.14900
C1132       C  0.51057967  0.69258187  0.37729634    -0.13200
C1133       C  0.55903742  0.69031449  0.30087805    -0.00400
C1134       C  0.55126773  0.69303704  0.27249402    -0.33200
C1135       C  0.49783678  0.73913568  0.41361232     0.01000
C1136       C  0.48940379  0.74762386  0.44074483    -0.34900
H1137       H  0.54430069  0.76960279  0.37836051     0.12000
H1138       H  0.57493845  0.74625532  0.33127857     0.11900
H1139       H  0.52276812  0.65439601  0.34250896     0.11700
H1140       H  0.49222436  0.67774053  0.38977146     0.10700
C1141       C  0.46718609  0.74402971  0.90765596     0.17100
C1142       C  0.49445423  0.72715233  0.89516555    -0.12000
C1143       C  0.49979133  0.72554230  0.86105184    -0.12900
C1144       C  0.47783403  0.74081385  0.83952124     0.18600
C1145       C  0.45034188  0.75739396  0.85196031    -0.14900
C1146       C  0.44499877  0.75901114  0.88612627    -0.13200
C1147       C  0.48431787  0.74074841  0.80475302    -0.00400
C1148       C  0.48995941  0.74232980  0.77563403    -0.33200
C1149       C  0.46274152  0.74650942  0.94266991     0.01000
C1150       C  0.46189542  0.74754991  0.97235046    -0.34900
H1151       H  0.51173516  0.71560315  0.91180291     0.12000
H1152       H  0.52118120  0.71283262  0.85150579     0.11900
H1153       H  0.43337576  0.76938815  0.83531597     0.11700
H1154       H  0.42391241  0.77217310  0.89573384     0.10700
C1155       C  0.74662535  0.09196075  0.02270173     0.17100
C1156       C  0.73973608  0.11549535  0.04722735    -0.12000
C1157       C  0.74758962  0.14855907  0.04171553    -0.12900
C1158       C  0.76236762  0.15787809  0.01175309     0.18600
C1159       C  0.76907951  0.13432697  0.98724787    -0.14900
C1160       C  0.76123166  0.10138215  0.99272958    -0.13200
C1161       C  0.76981406  0.19167769  0.00539195    -0.00400
C1162       C  0.77502276  0.21964608  0.99743174    -0.33200
C1163       C  0.73954076  0.05791006  0.02807496     0.01000
C1164       C  0.73593681  0.02860595  0.02926474    -0.34900
H1165       H  0.72844282  0.10829614  0.07047814     0.12000
H1166       H  0.74213371  0.16677687  0.06066427     0.11900
H1167       H  0.78029658  0.14145101  0.96392532     0.11700
H1168       H  0.76662801  0.08324316  0.97367280     0.10700
C1169       C  0.15449625  0.00566389  0.74141611     0.17100
C1170       C  0.14538919  0.97256630  0.74514226    -0.12000
C1171       C  0.11243044  0.96417955  0.74880570    -0.12900
C1172       C  0.08867310  0.98893972  0.74874978     0.18600
C1173       C  0.09776073  0.02199190  0.74463251    -0.14900
C1174       C  0.13070461  0.03037575  0.74099051    -0.13200
C1175       C  0.05490012  0.98089105  0.75336535    -0.00400
C1176       C  0.02586489  0.97812382  0.75691032    -0.33200
C1177       C  0.18840794  0.01410335  0.73935502     0.01000
C1178       C  0.21748293  0.01821856  0.73924875    -0.34900
H1179       H  0.16377750  0.95335350  0.74559711     0.12000
H1180       H  0.10552402  0.93857823  0.75197175     0.11900
H1181       H  0.07941227  0.04125374  0.74456197     0.11700
H1182       H  0.13763127  0.05602076  0.73823177     0.10700
C1183       C  0.99215093  0.70539290  0.10223891     0.17100
C1184       C  0.01738489  0.72837268  0.09728850    -0.12000
C1185       C  0.04008503  0.73432843  0.12224823    -0.12900
C1186       C  0.03771922  0.71699785  0.15199466     0.18600
C1187       C  0.01387272  0.69232911  0.15601614    -0.14900
C1188       C  0.99098966  0.68649822  0.13107098    -0.13200
C1189       C  0.05195483  0.73073014  0.18109207    -0.00400
C1190       C  0.05024155  0.74314734  0.20797396    -0.33200
C1191       C  0.96795072  0.70212465  0.07706902     0.01000
C1192       C  0.95670054  0.70499129  0.04990082    -0.34900
H1193       H  0.01858154  0.74276825  0.07470240     0.12000
H1194       H  0.05783014  0.75401495  0.11930453     0.11900
H1195       H  0.01138723  0.67946045  0.17941969     0.11700
H1196       H  0.97175053  0.66844857  0.13482692     0.10700
C1197       C  0.25622106  0.58964782  0.52254164     0.17100
C1198       C  0.24517510  0.59671514  0.49051318    -0.12000
C1199       C  0.24445940  0.62917578  0.47952393    -0.12900
C1200       C  0.25484246  0.65447920  0.50060468     0.18600
C1201       C  0.26579161  0.64747063  0.53271595    -0.14900
C1202       C  0.26651667  0.61494225  0.54372588    -0.13200
C1203       C  0.25344954  0.68781435  0.48978836    -0.00400
C1204       C  0.25185849  0.71665613  0.48398463    -0.33200
C1205       C  0.25733523  0.55614851  0.53284018     0.01000
C1206       C  0.25698062  0.52685257  0.53599277    -0.34900
H1207       H  0.23720855  0.57711373  0.47404989     0.12000
H1208       H  0.23579662  0.63454076  0.45474612     0.11900
H1209       H  0.27366788  0.66711443  0.54916466     0.11700
H1210       H  0.27509680  0.60953094  0.56851949     0.10700
C1211       C  0.22297840  0.15676873  0.43800588     0.17100
C1212       C  0.20728833  0.13108829  0.45473681    -0.12000
C1213       C  0.22399679  0.10184977  0.46044387    -0.12900
C1214       C  0.25642538  0.09836692  0.44959266     0.18600
C1215       C  0.27128789  0.12293509  0.43052814    -0.14900
C1216       C  0.25449101  0.15228251  0.42475757    -0.13200
C1217       C  0.27397211  0.06979873  0.45968334    -0.00400
C1218       C  0.27961014  0.04281007  0.47003205    -0.33200
C1219       C  0.21169682  0.18949075  0.44367280     0.01000
C1220       C  0.21055182  0.21592528  0.45688085    -0.34900
H1221       H  0.18330156  0.13465240  0.46577865     0.12000
H1222       H  0.21228832  0.08267215  0.47495277     0.11900
H1223       H  0.29625310  0.12016119  0.42177212     0.11700
H1224       H  0.26705720  0.17240272  0.41245726     0.10700
C1225       C  0.00714255  0.74061915  0.65547989     0.17100
C1226       C  0.01147140  0.70979428  0.64033644    -0.12000
C1227       C  0.01356107  0.70750827  0.60584559    -0.12900
C1228       C  0.01135106  0.73607266  0.58667809     0.18600
C1229       C  0.00807099  0.76696663  0.60190244    -0.14900
C1230       C  0.00595340  0.76924626  0.63634182    -0.13200
C1231       C  0.01012136  0.73386202  0.55137201    -0.00400
C1232       C  0.00708644  0.73524982  0.52186045    -0.33200
C1233       C  0.00183063  0.74261116  0.69044081     0.01000
C1234       C  0.99613677  0.74281453  0.71962715    -0.34900
H1235       H  0.01233437  0.68754924  0.65510522     0.12000
H1236       H  0.01599884  0.68354275  0.59414341     0.11900
H1237       H  0.00624295  0.78913966  0.58711506     0.11700
H1238       H  0.00252383  0.79313228  0.64795825     0.10700
C1239       C  0.98863826  0.26506270  0.40826867     0.17100
C1240       C  0.01948031  0.25656790  0.39561432    -0.12000
C1241       C  0.02771162  0.26447065  0.36298372    -0.12900
C1242       C  0.00514486  0.28099874  0.34304470     0.18600
C1243       C  0.97446182  0.28992012  0.35582621    -0.14900
C1244       C  0.96622343  0.28201660  0.38850522    -0.13200
C1245       C  0.01229617  0.28599490  0.30866894    -0.00400
C1246       C  0.01659956  0.28639233  0.27920466    -0.33200
C1247       C  0.98070997  0.25719471  0.44191642     0.01000
C1248       C  0.97775449  0.25172983  0.47101396    -0.34900
H1249       H  0.03703201  0.24366606  0.41089641     0.12000
H1250       H  0.05136135  0.25719818  0.35313533     0.11900
H1251       H  0.95676834  0.30242118  0.34038306     0.11700
H1252       H  0.94241885  0.28888056  0.39825363     0.10700
C1253       C  0.08106172  0.26527755  0.89419764     0.17100
C1254       C  0.07816972  0.23088574  0.89601232    -0.12000
C1255       C  0.07710320  0.21214258  0.86700385    -0.12900
C1256       C  0.07932148  0.22788058  0.83633065     0.18600
C1257       C  0.08550553  0.26187374  0.83470074    -0.14900
C1258       C  0.08619824  0.28067384  0.86370543    -0.13200
C1259       C  0.06603035  0.21227569  0.80764872    -0.00400
C1260       C  0.04847847  0.20948001  0.78409023    -0.33200
C1261       C  0.07336037  0.28423642  0.92304607     0.01000
C1262       C  0.06347136  0.29242273  0.94983564    -0.34900
H1263       H  0.07402316  0.21889395  0.91965693     0.12000
H1264       H  0.07162425  0.18603845  0.86843996     0.11900
H1265       H  0.08655844  0.27429065  0.81094386     0.11700
H1266       H  0.08822819  0.30725793  0.86215853     0.10700
C1267       C  0.34470699  0.01874634  0.28967766     0.17100
C1268       C  0.36580577  0.03261578  0.31310050    -0.12000
C1269       C  0.39147178  0.01375463  0.32551152    -0.12900
C1270       C  0.39550287  0.98109040  0.31475363     0.18600
C1271       C  0.37368126  0.96705147  0.29217930    -0.14900
C1272       C  0.34822985  0.98586650  0.27971368    -0.13200
C1273       C  0.42608271  0.96537018  0.31972683    -0.00400
C1274       C  0.45439744  0.95978764  0.31504374    -0.33200
C1275       C  0.31734964  0.03642858  0.27752206     0.01000
C1276       C  0.29007883  0.04091462  0.26811520    -0.34900
H1277       H  0.36274801  0.05790494  0.32125827     0.12000
H1278       H  0.40900548  0.02502575  0.34220732     0.11900
H1279       H  0.37730408  0.94217571  0.28298719     0.11700
H1280       H  0.33151003  0.97492175  0.26195645     0.10700
C1281       C  0.24415189  0.90744536  0.01561909     0.17100
C1282       C  0.22687239  0.88795577  0.99299629    -0.12000
C1283       C  0.21494625  0.85733095  0.00278726    -0.12900
C1284       C  0.22017071  0.84636247  0.03520556     0.18600
C1285       C  0.23734440  0.86589083  0.05792488    -0.14900
C1286       C  0.24923958  0.89659427  0.04813641    -0.13200
C1287       C  0.21150919  0.81340151  0.04338393    -0.00400
C1288       C  0.20879678  0.78411135  0.04482163    -0.33200
C1289       C  0.25474044  0.93954486  0.00622198     0.01000
C1290       C  0.26071145  0.96798743  0.00131748    -0.34900
H1291       H  0.22264968  0.89641970  0.96790488     0.12000
H1292       H  0.20220348  0.84194835  0.98495461     0.11900
H1293       H  0.24197577  0.85717907  0.08285227     0.11700
H1294       H  0.26236925  0.91182386  0.06580532     0.10700
C1295       C  0.25646646  0.40001375  0.03901325     0.17100
C1296       C  0.25068440  0.38187819  0.06786446    -0.12000
C1297       C  0.27120153  0.35569484  0.07566433    -0.12900
C1298       C  0.29756548  0.34802780  0.05474292     0.18600
C1299       C  0.30425277  0.36728862  0.02680451    -0.14900
C1300       C  0.28372227  0.39341286  0.01898909    -0.13200
C1301       C  0.31066227  0.31570405  0.05580104    -0.00400
C1302       C  0.31128367  0.28712558  0.04875239    -0.33200
C1303       C  0.23607894  0.42718632  0.03127703     0.01000
C1304       C  0.22451104  0.45384605  0.02734894    -0.34900
H1305       H  0.22994044  0.38744023  0.08376610     0.12000
H1306       H  0.26531564  0.34020520  0.09672401     0.11900
H1307       H  0.32399196  0.36080661  0.00995618     0.11700
H1308       H  0.28859611  0.40791547  0.99697591     0.10700
C1309       C  0.83424554  0.01354479  0.24617934     0.17100
C1310       C  0.85156713  0.03638474  0.26538144    -0.12000
C1311       C  0.88479458  0.04142714  0.25935033    -0.12900
C1312       C  0.90051512  0.02362386  0.23413934     0.18600
C1313       C  0.88291729  0.00169517  0.21411947    -0.14900
C1314       C  0.84966968  0.99666910  0.22013724    -0.13200
C1315       C  0.93523599  0.02514334  0.23142241    -0.00400
C1316       C  0.96449597  0.02476061  0.23242789    -0.33200
C1317       C  0.80121702  0.00582185  0.25450219     0.01000
C1318       C  0.77374516  0.99802151  0.26128721    -0.34900
H1319       H  0.83967292  0.04942380  0.28560402     0.12000
H1320       H  0.89845822  0.05821254  0.27507623     0.11900
H1321       H  0.89510955  0.98766771  0.19476999     0.11700
H1322       H  0.83627916  0.97891118  0.20527195     0.10700
C1323       C  0.65067238  0.05493415  0.76795517     0.17100
C1324       C  0.65407495  0.05122895  0.73346380    -0.12000
C1325       C  0.62648406  0.04677653  0.71372612    -0.12900
C1326       C  0.59558621  0.04637276  0.72857767     0.18600
C1327       C  0.59205087  0.05253416  0.76269605    -0.14900
C1328       C  0.61966089  0.05662232  0.78249112    -0.13200
C1329       C  0.56761922  0.03536282  0.71061052    -0.00400
C1330       C  0.54060613  0.02518248  0.70542527    -0.33200
C1331       C  0.67898646  0.05020895  0.78790568     0.01000
C1332       C  0.70539624  0.03961397  0.79480787    -0.34900
H1333       H  0.67815101  0.04941585  0.72217437     0.12000
H1334       H  0.62935073  0.04178881  0.68744150     0.11900
H1335       H  0.56805593  0.05204815  0.77429711     0.11700
H1336       H  0.61689646  0.05895623  0.80914925     0.10700
C1337       C  0.47950931  0.30342474  0.59780111     0.17100
C1338       C  0.49724696  0.31972445  0.62243528    -0.12000
C1339       C  0.48421697  0.32189945  0.65436417    -0.12900
C1340       C  0.45375921  0.30743813  0.66149145     0.18600
C1341       C  0.43486055  0.29376311  0.63614045    -0.14900
C1342       C  0.44771370  0.29194415  0.60415656    -0.13200
C1343       C  0.44746690  0.29811075  0.69489912    -0.00400
C1344       C  0.45367707  0.28635622  0.72128344    -0.33200
C1345       C  0.49491252  0.29359986  0.56762485     0.01000
C1346       C  0.50063343  0.27995705  0.54191181    -0.34900
H1347       H  0.52190554  0.32845807  0.61764773     0.12000
H1348       H  0.49925776  0.33187688  0.67412021     0.11900
H1349       H  0.41167991  0.28187899  0.64162055     0.11700
H1350       H  0.43397773  0.27916231  0.58505314     0.10700
C1351       C  0.51187090  0.24867027  0.15790370     0.17100
C1352       C  0.54092701  0.23876103  0.14236102    -0.12000
C1353       C  0.54664043  0.24717323  0.10933290    -0.12900
C1354       C  0.52332334  0.26554583  0.09205436     0.18600
C1355       C  0.49471067  0.27622864  0.10790893    -0.14900
C1356       C  0.48900455  0.26782508  0.14091027    -0.13200
C1357       C  0.52690411  0.27003083  0.05717450    -0.00400
C1358       C  0.52826107  0.26969335  0.02749633    -0.33200
C1359       C  0.50527463  0.23915919  0.19126847     0.01000
C1360       C  0.49900811  0.23321567  0.21965910    -0.34900
H1361       H  0.55875526  0.22406711  0.15552687     0.12000
H1362       H  0.56867028  0.23855960  0.09700909     0.11900
H1363       H  0.47644484  0.29014751  0.09450372     0.11700
H1364       H  0.46654848  0.27567580  0.15295977     0.10700
C1365       C  0.14965134  0.54355219  0.31534712     0.17100
C1366       C  0.13475578  0.51401041  0.32523702    -0.12000
C1367       C  0.10399020  0.50563052  0.31301109    -0.12900
C1368       C  0.08833812  0.52693163  0.29108510     0.18600
C1369       C  0.10187341  0.55775416  0.28364198    -0.14900
C1370       C  0.13267930  0.56606353  0.29573188    -0.13200
C1371       C  0.05970186  0.51656787  0.27402275    -0.00400
C1372       C  0.03514553  0.51248276  0.25853833    -0.33200
C1373       C  0.18438634  0.54529646  0.31607247     0.01000
C1374       C  0.21193017  0.53824879  0.30892483    -0.34900
H1375       H  0.14814214  0.49614943  0.33978183     0.12000
H1376       H  0.09343754  0.48182471  0.31892050     0.11900
H1377       H  0.08961154  0.57436816  0.26677153     0.11700
H1378       H  0.14438669  0.58855986  0.28735611     0.10700
C1379       C  0.69829205  0.65980837  0.92861865     0.17100
C1380       C  0.72951654  0.65523097  0.91489774    -0.12000
C1381       C  0.74554248  0.62529884  0.91899135    -0.12900
C1382       C  0.73024752  0.60005461  0.93674239     0.18600
C1383       C  0.69800942  0.60364218  0.94810335    -0.14900
C1384       C  0.68201509  0.63367151  0.94414388    -0.13200
C1385       C  0.74806338  0.57098609  0.94452028    -0.00400
C1386       C  0.76097810  0.54509377  0.94968649    -0.33200
C1387       C  0.68849524  0.69261633  0.93605958     0.01000
C1388       C  0.68992812  0.71866850  0.94993001    -0.34900
H1389       H  0.74258579  0.67564914  0.90365776     0.12000
H1390       H  0.77041444  0.62247746  0.90995324     0.11900
H1391       H  0.68600424  0.58394575  0.96160662     0.11700
H1392       H  0.65821809  0.63732425  0.95556397     0.10700
loop_ 
_geom_bond_atom_site_label_1 
_geom_bond_atom_site_label_2 
_geom_bond_distance 
_geom_bond_site_symmetry_2 
_ccdc_geom_bond_type 
O1           Mg3   2.187       .  S
O1           Mg9   2.105       .  S
O1           C36   1.237       .  S
C2           O15   1.241       .  S
C2           O39   1.275       .  A
C2           H41   1.081       .  S
Mg3          O32   2.099       .  S
Mg3          O47   2.456       .  S
Mg3          O43   2.369       .  S
Mg3          O14   2.331       .  S
O4          Mg46   2.143       .  S
O4          Mg29   2.179       .  S
O4           C25   1.240       .  S
O5           C36   1.273       .  A
O5          Mg29   2.316       .  S
C6            O8   1.260       .  A
C6           O20   1.298       .  A
C6          C491   1.490       .  S
O7           C35   1.277       .  A
O7           Mg9   2.329       .  S
O8          Mg40   2.167       .  S
Mg9          O15   2.152       .  S
Mg9          O23   2.220       .  S
Mg9          O11   2.264       .  S
C10          O48   1.292       .  A
C10          O16   1.272       .  A
C10         C507   1.508       .  S
O11          C18   1.265       .  A
H12          C25   1.081       .  S
C13          O27   1.238       .  S
C13          O28   1.272       .  A
C13          H38   1.081       .  S
O14          C37   1.280       .  A
O15         Mg29   2.170       .  S
O16         Mg46   2.323       .  S
C17          O30   1.263       .  A
C17          O22   1.292       .  A
C17         C513   1.483       .  S
C18          O45   1.290       .  A
C18         C521   1.497       .  S
Mg19         O26   2.181       .  S
Mg19         O27   2.141       .  S
Mg19         O20   2.474       .  S
Mg19         O21   2.320       .  S
Mg19         O48   2.380       .  S
O21          C25   1.276       .  A
O22         Mg29   2.424       .  S
O23          C42   1.252       .  A
O24          C44   1.269       .  A
O24         Mg40   2.318       .  S
O26         Mg40   2.141       .  S
O26          C37   1.243       .  S
O27         Mg46   2.153       .  S
O28         Mg40   2.300       .  S
Mg29         O45   2.388       .  S
O30         Mg46   2.196       .  S
H31          C36   1.081       .  S
O32         Mg40   2.125       .  S
O32          C35   1.240       .  S
H33          C35   1.081       .  S
H34          C37   1.081       .  S
O39         Mg46   2.305       .  S
C42          O47   1.288       .  A
C42         C501   1.485       .  S
O43          C44   1.288       .  A
C44         C497   1.507       .  S
O49         Mg51   2.162       .  S
O49         Mg57   2.138       .  S
O49          C84   1.240       .  S
C50          O63   1.241       .  S
C50          O87   1.274       .  A
C50          H89   1.081       .  S
Mg51         O80   2.144       .  S
Mg51         O95   2.448       .  S
Mg51         O91   2.359       .  S
Mg51         O62   2.323       .  S
O52         Mg94   2.144       .  S
O52         Mg77   2.148       .  S
O52          C73   1.238       .  S
O53          C84   1.276       .  A
O53         Mg77   2.320       .  S
C54          O56   1.265       .  A
C54          O68   1.294       .  A
C54         C503   1.488       .  S
O55          C83   1.274       .  A
O55         Mg57   2.305       .  S
O56         Mg88   2.201       .  S
Mg57         O63   2.156       .  S
Mg57         O71   2.204       .  S
Mg57         O59   2.295       .  S
C58          O96   1.292       .  A
C58          O64   1.269       .  A
C58         C453   1.505       .  S
O59          C66   1.268       .  A
H60          C73   1.081       .  S
C61          O75   1.240       .  S
C61          O76   1.272       .  A
C61          H86   1.081       .  S
O62          C85   1.275       .  A
O63         Mg77   2.147       .  S
O64         Mg94   2.282       .  S
C65          O78   1.264       .  A
C65          O70   1.297       .  A
C65         C471   1.492       .  S
C66          O93   1.290       .  A
C66         C155   1.498       .  S
Mg67         O74   2.186       .  S
Mg67         O75   2.159       .  S
Mg67         O68   2.437       .  S
Mg67         O69   2.303       .  S
Mg67         O96   2.402       .  S
O69          C73   1.272       .  A
O70         Mg77   2.449       .  S
O71          C90   1.263       .  A
O72          C92   1.272       .  A
O72         Mg88   2.315       .  S
O74         Mg88   2.150       .  S
O74          C85   1.239       .  S
O75         Mg94   2.137       .  S
O76         Mg88   2.292       .  S
Mg77         O93   2.364       .  S
O78         Mg94   2.210       .  S
H79          C84   1.081       .  S
O80         Mg88   2.153       .  S
O80          C83   1.240       .  S
H81          C83   1.081       .  S
H82          C85   1.081       .  S
O87         Mg94   2.301       .  S
C90          O95   1.293       .  A
C90         C527   1.491       .  S
O91          C92   1.287       .  A
C92         C519   1.500       .  S
O97         Mg99   2.184       .  S
O97        Mg105   2.131       .  S
O97         C132   1.241       .  S
C98         O111   1.239       .  S
C98         O135   1.273       .  A
C98         H137   1.081       .  S
Mg99        O128   2.154       .  S
Mg99        O143   2.444       .  S
Mg99        O139   2.388       .  S
Mg99        O110   2.320       .  S
O100       Mg142   2.138       .  S
O100       Mg125   2.162       .  S
O100        C121   1.243       .  S
O101        C132   1.277       .  A
O101       Mg125   2.328       .  S
C102        O104   1.257       .  A
C102        O116   1.293   1_556  A
C102        C485   1.491       .  S
O103        C131   1.275       .  A
O103       Mg105   2.309       .  S
O104       Mg136   2.203   1_556  S
Mg105       O111   2.147       .  S
Mg105       O119   2.192       .  S
Mg105       O107   2.311       .  S
C106        O144   1.287       .  A
C106        O112   1.268       .  A
C106        C299   1.500   1_655  S
O107        C114   1.270       .  A
H108        C121   1.081       .  S
C109        O123   1.240       .  S
C109        O124   1.275       .  A
C109        H134   1.081       .  S
O110        C133   1.275       .  A
O111       Mg125   2.135       .  S
O112       Mg142   2.272       .  S
C113        O126   1.264       .  A
C113        O118   1.296       .  A
C113        C305   1.495   1_655  S
C114        O141   1.288       .  A
C114        C153   1.501       .  S
Mg115       O122   2.178       .  S
Mg115       O123   2.127       .  S
Mg115       O116   2.471       .  S
Mg115       O117   2.324       .  S
Mg115       O144   2.382       .  S
O117        C121   1.279       .  A
O118       Mg125   2.457       .  S
O119        C138   1.262       .  A
O120        C140   1.267       .  A
O120       Mg136   2.278       .  S
O122       Mg136   2.106       .  S
O122        C133   1.239       .  S
O123       Mg142   2.130       .  S
O124       Mg136   2.317       .  S
Mg125       O141   2.362       .  S
O126       Mg142   2.216       .  S
H127        C132   1.081       .  S
O128       Mg136   2.149       .  S
O128        C131   1.240       .  S
H129        C131   1.081       .  S
H130        C133   1.081       .  S
O135       Mg142   2.302       .  S
C138        O143   1.293       .  A
C138        C525   1.485       .  S
O139        C140   1.289       .  A
C140        C147   1.502   1_554  S
C145        N146   1.357       .  A
C145        N150   1.350       .  A
C145       C1386   1.417       .  S
N146        C147   1.357       .  A
C147        N148   1.383       .  A
N148        C149   1.378       .  A
C149        C174   1.498       .  S
C149        N150   1.347       .  A
C151        N152   1.352   1_455  A
C151        N156   1.348   1_455  A
C151       C1372   1.414       .  S
N152        C153   1.356       .  A
C153        N154   1.384       .  A
N154        C155   1.381       .  A
C155        N156   1.347       .  A
O157       Mg159   2.177       .  S
O157       Mg165   2.140       .  S
O157        C192   1.242       .  S
C158        O171   1.241       .  S
C158        O195   1.275       .  A
C158        H197   1.081       .  S
Mg159       O188   2.155       .  S
Mg159       O203   2.459       .  S
Mg159       O199   2.392       .  S
Mg159       O170   2.310       .  S
O160       Mg202   2.121       .  S
O160       Mg185   2.154       .  S
O160        C181   1.239       .  S
O161        C192   1.278       .  A
O161       Mg185   2.330       .  S
C162        O164   1.264       .  A
C162        O176   1.296       .  A
C162        C261   1.487       .  S
O163        C191   1.273       .  A
O163       Mg165   2.299       .  S
O164       Mg196   2.207       .  S
Mg165       O171   2.152       .  S
Mg165       O179   2.195       .  S
Mg165       O167   2.302       .  S
C166        O204   1.293       .  A
C166        O172   1.267       .  A
C166        C509   1.509       .  S
O167        C174   1.269       .  A
H168        C181   1.081       .  S
C169        O183   1.241       .  S
C169        O184   1.273       .  A
C169        H194   1.081       .  S
O170        C193   1.273       .  A
O171       Mg185   2.131       .  S
O172       Mg202   2.291       .  S
C173        O186   1.259       .  A
C173        O178   1.295       .  A
C173        C515   1.484       .  S
C174        O201   1.287       .  A
Mg175       O182   2.169       .  S
Mg175       O183   2.147       .  S
Mg175       O176   2.435       .  S
Mg175       O177   2.312       .  S
Mg175       O204   2.400       .  S
O177        C181   1.274       .  A
O178       Mg185   2.463       .  S
O179        C198   1.263       .  A
O180        C200   1.269       .  A
O180       Mg196   2.287       .  S
O182       Mg196   2.154       .  S
O182        C193   1.239       .  S
O183       Mg202   2.139       .  S
O184       Mg196   2.295       .  S
Mg185       O201   2.354       .  S
O186       Mg202   2.183       .  S
H187        C192   1.081       .  S
O188       Mg196   2.147       .  S
O188        C191   1.240       .  S
H189        C191   1.081       .  S
H190        C193   1.081       .  S
O195       Mg202   2.314       .  S
C198        O203   1.296       .  A
C198        C483   1.492       .  S
O199        C200   1.291       .  A
C200        C257   1.504       .  S
O205       Mg207   2.160       .  S
O205       Mg213   2.144       .  S
O205        C240   1.241       .  S
C206        O219   1.241       .  S
C206        O243   1.274       .  A
C206        H245   1.081       .  S
Mg207       O236   2.140       .  S
Mg207       O251   2.485       .  S
Mg207       O247   2.381       .  S
Mg207       O218   2.332       .  S
O208       Mg250   2.138       .  S
O208       Mg233   2.141       .  S
O208        C229   1.239       .  S
O209        C240   1.276       .  A
O209       Mg233   2.321       .  S
C210        O212   1.264       .  A
C210        O224   1.292       .  A
C210        C287   1.482       .  S
O211        C239   1.275       .  A
O211       Mg213   2.310       .  S
O212       Mg244   2.201       .  S
Mg213       O219   2.150       .  S
Mg213       O227   2.225       .  S
Mg213       O215   2.267       .  S
C214        O252   1.290       .  A
C214        O220   1.267       .  A
C214        C479   1.503       .  S
O215        C222   1.267       .  A
H216        C229   1.081       .  S
C217        O231   1.240       .  S
C217        O232   1.273       .  A
C217        H242   1.081       .  S
O218        C241   1.277       .  A
O219       Mg233   2.159       .  S
O220       Mg250   2.267       .  S
C221        O234   1.262       .  A
C221        O226   1.297       .  A
C221        C267   1.490       .  S
C222        O249   1.286       .  A
C222        C263   1.492       .  S
Mg223       O230   2.189       .  S
Mg223       O231   2.150       .  S
Mg223       O224   2.432       .  S
Mg223       O225   2.301       .  S
Mg223       O252   2.398       .  S
O225        C229   1.273       .  A
O226       Mg233   2.449       .  S
O227        C246   1.264       .  A
O228        C248   1.270       .  A
O228       Mg244   2.311       .  S
O230       Mg244   2.134       .  S
O230        C241   1.240       .  S
O231       Mg250   2.126       .  S
O232       Mg244   2.294       .  S
Mg233       O249   2.366       .  S
O234       Mg250   2.202       .  S
H235        C240   1.081       .  S
O236       Mg244   2.166       .  S
O236        C239   1.240       .  S
H237        C239   1.081       .  S
H238        C241   1.081       .  S
O243       Mg250   2.299       .  S
C246        O251   1.301       .  A
C246        C255   1.505       .  S
O247        C248   1.292       .  A
C248        C279   1.503       .  S
C253        N254   1.360       .  A
C253        N258   1.357       .  A
C253       C1358   1.421   1_556  S
N254        C255   1.354       .  A
C255        N256   1.380       .  A
N256        C257   1.377       .  A
C257        N258   1.353       .  A
C259        N260   1.353       .  A
C259        N264   1.359       .  A
C259       C1344   1.419       .  S
N260        C261   1.348       .  A
C261        N262   1.375       .  A
N262        C263   1.373       .  A
C263        N264   1.358       .  A
C265        N266   1.355       .  A
C265        N270   1.361   1_545  A
C265       C1330   1.418       .  S
N266        C267   1.346       .  A
C267        N268   1.374       .  A
N268        C269   1.374   1_545  A
C269        C372   1.497       .  S
C269        N270   1.359       .  A
C271        N272   1.360   1_655  A
C271        N276   1.364   1_645  A
C271       C1316   1.418       .  S
N272        C273   1.351       .  A
C273        C348   1.483       .  S
C273        N274   1.367       .  A
N274        C275   1.367   1_545  A
C275        C444   1.491       .  S
C275        N276   1.354       .  A
C277        N278   1.351       .  A
C277        N282   1.355       .  A
C277       C1302   1.416       .  S
N278        C279   1.352   1_554  A
C279        N280   1.385   1_556  A
N280        C281   1.384       .  A
C281        C316   1.508       .  S
C281        N282   1.352       .  A
C283        N284   1.361       .  A
C283        N288   1.363   1_554  A
C283       C1290   1.418   1_545  S
N284        C285   1.350       .  A
C285        C323   1.481       .  S
C285        N286   1.364   1_554  A
N286        C287   1.364       .  A
C287        N288   1.356       .  A
C289        N290   1.351       .  A
C289        N294   1.351       .  A
C289       C1276   1.413       .  S
N290        C291   1.354       .  A
C291        C324   1.494       .  S
C291        N292   1.381       .  A
N292        C293   1.380       .  A
C293        C420   1.499   1_545  S
C293        N294   1.349       .  A
C295        N296   1.354   1_556  A
C295        N300   1.364       .  A
C295       C1262   1.419       .  S
N296        C297   1.347       .  A
C297        C312   1.486       .  S
C297        N298   1.373       .  A
N298        C299   1.371       .  A
C299        N300   1.360   1_554  A
C301        N302   1.361       .  A
C301        N306   1.360       .  A
C301       C1246   1.425       .  S
N302        C303   1.354       .  A
C303        C350   1.499       .  S
C303        N304   1.371       .  A
N304        C305   1.374       .  A
C305        N306   1.355       .  A
O307       Mg309   2.173       .  S
O307       Mg315   2.137       .  S
O307        C342   1.241       .  S
C308        O321   1.240       .  S
C308        O345   1.273       .  A
C308        H347   1.081       .  S
Mg309       O338   2.146       .  S
Mg309       O353   2.453       .  S
Mg309       O349   2.386       .  S
Mg309       O320   2.321       .  S
O310       Mg352   2.132       .  S
O310       Mg335   2.155       .  S
O310        C331   1.240       .  S
O311        C342   1.277       .  A
O311       Mg335   2.324       .  S
C312        O314   1.263       .  A
C312        O326   1.297       .  A
O313        C341   1.273       .  A
O313       Mg315   2.302       .  S
O314       Mg346   2.197       .  S
Mg315       O321   2.133       .  S
Mg315       O329   2.172       .  S
Mg315       O317   2.279       .  S
C316        O354   1.294       .  A
C316        O322   1.267       .  A
O317        C324   1.266       .  A
H318        C331   1.081       .  S
C319        O333   1.239       .  S
C319        O334   1.272       .  A
C319        H344   1.081       .  S
O320        C343   1.276       .  A
O321       Mg335   2.138       .  S
O322       Mg352   2.283       .  S
C323        O336   1.260       .  A
C323        O328   1.293       .  A
C324        O351   1.286       .  A
Mg325       O332   2.179       .  S
Mg325       O333   2.139       .  S
Mg325       O326   2.446       .  S
Mg325       O327   2.310       .  S
Mg325       O354   2.411       .  S
O327        C331   1.275       .  A
O328       Mg335   2.441       .  S
O329        C348   1.259       .  A
O330        C350   1.268       .  A
O330       Mg346   2.274       .  S
O332       Mg346   2.148       .  S
O332        C343   1.240       .  S
O333       Mg352   2.125       .  S
O334       Mg346   2.293       .  S
Mg335       O351   2.358       .  S
O336       Mg352   2.173       .  S
H337        C342   1.081       .  S
O338       Mg346   2.136       .  S
O338        C341   1.239       .  S
H339        C341   1.081       .  S
H340        C343   1.081       .  S
O345       Mg352   2.300       .  S
C348        O353   1.294       .  A
O349        C350   1.288       .  A
O355       Mg357   2.157       .  S
O355       Mg363   2.137       .  S
O355        C390   1.241       .  S
C356        O369   1.240       .  S
C356        O393   1.274       .  A
C356        H395   1.081       .  S
Mg357       O386   2.158       .  S
Mg357       O401   2.466       .  S
Mg357       O397   2.379       .  S
Mg357       O368   2.321       .  S
O358       Mg400   2.130       .  S
O358       Mg383   2.167       .  S
O358        C379   1.240       .  S
O359        C390   1.276       .  A
O359       Mg383   2.315       .  S
C360        O362   1.266       .  A
C360        O374   1.298       .  A
C360        C465   1.499       .  S
O361        C389   1.274       .  A
O361       Mg363   2.303       .  S
O362       Mg394   2.240       .  S
Mg363       O369   2.146       .  S
Mg363       O377   2.225       .  S
Mg363       O365   2.261       .  S
C364        O402   1.291       .  A
C364        O370   1.269       .  A
C364        C495   1.504       .  S
O365        C372   1.266       .  A
H366        C379   1.081       .  S
C367        O381   1.240       .  S
C367        O382   1.274       .  A
C367        H392   1.081       .  S
O368        C391   1.276       .  A
O369       Mg383   2.155       .  S
O370       Mg400   2.295       .  S
C371        O384   1.264       .  A
C371        O376   1.296       .  A
C371        C489   1.490       .  S
C372        O399   1.288       .  A
Mg373       O380   2.167       .  S
Mg373       O381   2.144       .  S
Mg373       O374   2.460       .  S
Mg373       O375   2.320       .  S
Mg373       O402   2.387       .  S
O375        C379   1.276       .  A
O376       Mg383   2.460       .  S
O377        C396   1.265       .  A
O378        C398   1.267       .  A
O378       Mg394   2.264       .  S
O380       Mg394   2.144       .  S
O380        C391   1.241       .  S
O381       Mg400   2.152       .  S
O382       Mg394   2.303       .  S
Mg383       O399   2.385       .  S
O384       Mg400   2.206       .  S
H385        C390   1.081       .  S
O386       Mg394   2.155       .  S
O386        C389   1.240       .  S
H387        C389   1.081       .  S
H388        C391   1.081       .  S
O393       Mg400   2.302       .  S
C396        O401   1.298       .  A
C396        C477   1.498   1_565  S
O397        C398   1.288       .  A
C398        C461   1.495       .  S
O403       Mg405   2.153       .  S
O403       Mg411   2.127       .  S
O403        C438   1.239       .  S
C404        O417   1.240       .  S
C404        O441   1.273       .  A
C404        H443   1.081       .  S
Mg405       O434   2.157       .  S
Mg405       O449   2.466       .  S
Mg405       O445   2.368       .  S
Mg405       O416   2.321       .  S
O406       Mg448   2.152       .  S
O406       Mg431   2.164       .  S
O406        C427   1.239       .  S
O407        C438   1.274       .  A
O407       Mg431   2.312       .  S
C408        O410   1.264       .  A
C408        O422   1.299       .  A
C408        C455   1.498       .  S
O409        C437   1.273       .  A
O409       Mg411   2.299       .  S
O410       Mg442   2.221       .  S
Mg411       O417   2.143       .  S
Mg411       O425   2.188       .  S
Mg411       O413   2.299       .  S
C412        O450   1.292       .  A
C412        O418   1.267       .  A
C412        C467   1.503       .  S
O413        C420   1.269       .  A
H414        C427   1.081       .  S
C415        O429   1.241       .  S
C415        O430   1.274       .  A
C415        H440   1.081       .  S
O416        C439   1.276       .  A
O417       Mg431   2.140       .  S
O418       Mg448   2.270       .  S
C419        O432   1.265       .  A
C419        O424   1.293       .  A
C419        C459   1.487       .  S
C420        O447   1.289       .  A
Mg421       O428   2.170       .  S
Mg421       O429   2.158       .  S
Mg421       O422   2.466       .  S
Mg421       O423   2.316       .  S
Mg421       O450   2.402       .  S
O423        C427   1.275       .  A
O424       Mg431   2.416       .  S
O425        C444   1.262       .  A
O426        C446   1.266       .  A
O426       Mg442   2.261       .  S
O428       Mg442   2.146       .  S
O428        C439   1.241       .  S
O429       Mg448   2.157       .  S
O430       Mg442   2.304       .  S
Mg431       O447   2.369       .  S
O432       Mg448   2.232       .  S
H433        C438   1.081       .  S
O434       Mg442   2.147       .  S
O434        C437   1.240       .  S
H435        C437   1.081       .  S
H436        C439   1.081       .  S
O441       Mg448   2.297       .  S
C444        O449   1.296       .  A
O445        C446   1.287       .  A
C446        C473   1.491       .  S
C451        N452   1.360   1_455  A
C451        N456   1.357       .  A
C451       C1232   1.421       .  S
N452        C453   1.356       .  A
C453        N454   1.376       .  A
N454        C455   1.378   1_655  A
C455        N456   1.351       .  A
C457        N458   1.352   1_545  A
C457        N462   1.361   1_545  A
C457       C1218   1.418       .  S
N458        C459   1.346       .  A
C459        N460   1.373       .  A
N460        C461   1.375       .  A
C461        N462   1.359       .  A
C463        N464   1.357       .  A
C463        N468   1.358       .  A
C463       C1204   1.418       .  S
N464        C465   1.351       .  A
C465        N466   1.378       .  A
N466        C467   1.378       .  A
C467        N468   1.354       .  A
C469        N470   1.356       .  A
C469        N474   1.358       .  A
C469       C1190   1.418       .  S
N470        C471   1.349   1_455  A
C471        N472   1.375       .  A
N472        C473   1.373   1_655  A
C473        N474   1.357       .  A
C475        N476   1.359       .  A
C475        N480   1.360       .  A
C475       C1178   1.423       .  S
N476        C477   1.353       .  A
C477        N478   1.376       .  A
N478        C479   1.375       .  A
C479        N480   1.355       .  A
C481        N482   1.363       .  A
C481        N486   1.364       .  A
C481       C1162   1.423       .  S
N482        C483   1.352       .  A
C483        N484   1.367       .  A
N484        C485   1.368       .  A
C485        N486   1.356       .  A
C487        N488   1.362       .  A
C487        N492   1.362       .  A
C487       C1148   1.420       .  S
N488        C489   1.353       .  A
C489        N490   1.367       .  A
N490        C491   1.371       .  A
C491        N492   1.353       .  A
C493        N494   1.353       .  A
C493        N498   1.350       .  A
C493       C1136   1.415       .  S
N494        C495   1.357       .  A
C495        N496   1.387       .  A
N496        C497   1.382       .  A
C497        N498   1.347       .  A
C499        N500   1.360       .  A
C499        N504   1.361       .  A
C499       C1120   1.420       .  S
N500        C501   1.351       .  A
C501        N502   1.366       .  A
N502        C503   1.370       .  A
C503        N504   1.355       .  A
C505        N506   1.350       .  A
C505        N510   1.352       .  A
C505       C1106   1.415       .  S
N506        C507   1.351       .  A
C507        N508   1.386       .  A
N508        C509   1.387       .  A
C509        N510   1.352       .  A
C511        N512   1.357       .  A
C511        N516   1.362       .  A
C511       C1092   1.416       .  S
N512        C513   1.351       .  A
C513        N514   1.370       .  A
N514        C515   1.367       .  A
C515        N516   1.354       .  A
C517        N518   1.355       .  A
C517        N522   1.355       .  A
C517       C1078   1.419       .  S
N518        C519   1.355       .  A
C519        N520   1.378       .  A
N520        C521   1.378       .  A
C521        N522   1.351       .  A
C523        N524   1.361       .  A
C523        N528   1.363       .  A
C523       C1066   1.423       .  S
N524        C525   1.353       .  A
C525        N526   1.367       .  A
N526        C527   1.367       .  A
C527        N528   1.355       .  A
O529       Mg531   2.161       .  S
O529       Mg537   2.166       .  S
O529        C564   1.241       .  S
C530        O543   1.240       .  S
C530        O567   1.276       .  A
C530        H569   1.081       .  S
Mg531       O560   2.108       .  S
Mg531       O575   2.277       .  S
Mg531       O571   2.219       .  S
Mg531       O542   2.324       .  S
O532       Mg574   2.141       .  S
O532       Mg557   2.151       .  S
O532        C553   1.239       .  S
O533        C564   1.275       .  A
O533       Mg557   2.307       .  S
C534        O536   1.288       .  A
C534        O548   1.267       .  A
C534        C957   1.502       .  S
O535        C563   1.274       .  A
O535       Mg537   2.319       .  S
O536       Mg568   2.367       .  S
Mg537       O543   2.193       .  S
Mg537       O551   2.413       .  S
Mg537       O539   2.458       .  S
C538        O576   1.261       .  A
C538        O544   1.294       .  A
C538        C963   1.487       .  S
O539        C546   1.296       .  A
H540        C553   1.081       .  S
C541        O555   1.243       .  S
C541        O556   1.279       .  A
C541        H566   1.081       .  S
O542        C565   1.276       .  A
O543       Mg557   2.147       .  S
O544       Mg574   2.456       .  S
C545        O558   1.288       .  A
C545        O550   1.274       .  A
C545        C741   1.504       .  S
C546        O573   1.264       .  A
C546       C1035   1.494       .  S
Mg547       O554   2.134       .  S
Mg547       O555   2.138       .  S
Mg547       O548   2.299       .  S
Mg547       O549   2.301       .  S
Mg547       O576   2.183       .  S
O549        C553   1.273       .  A
O550       Mg557   2.334       .  S
O551        C570   1.294       .  A
O552        C572   1.291       .  A
O552       Mg568   2.458       .  S
O554       Mg568   2.111       .  S
O554        C565   1.240       .  S
O555       Mg574   2.166       .  S
O556       Mg568   2.327       .  S
Mg557       O573   2.197       .  S
O558       Mg574   2.357       .  S
H559        C564   1.081       .  S
O560       Mg568   2.180       .  S
O560        C563   1.237       .  S
H561        C563   1.081       .  S
H562        C565   1.081       .  S
O567       Mg574   2.324       .  S
C570        O575   1.266       .  A
C570        C975   1.508       .  S
O571        C572   1.256       .  A
C572        C981   1.486       .  S
O577       Mg579   2.134       .  S
O577       Mg585   2.139       .  S
O577        C612   1.239       .  S
C578        O591   1.241       .  S
C578        O615   1.277       .  A
C578        H617   1.081       .  S
Mg579       O608   2.131       .  S
Mg579       O623   2.277       .  S
Mg579       O619   2.177       .  S
Mg579       O590   2.301       .  S
O580       Mg622   2.132       .  S
O580       Mg605   2.145       .  S
O580        C601   1.240       .  S
O581        C612   1.272       .  A
O581       Mg605   2.299       .  S
C582        O584   1.289       .  A
C582        O596   1.268       .  A
C582        C969   1.502       .  S
O583        C611   1.276       .  A
O583       Mg585   2.319       .  S
O584       Mg616   2.380       .  S
Mg585       O591   2.171       .  S
Mg585       O599   2.377       .  S
Mg585       O587   2.463       .  S
C586        O624   1.261       .  A
C586        O592   1.293       .  A
C586       C1005   1.486       .  S
O587        C594   1.296       .  A
H588        C601   1.081       .  S
C589        O603   1.241       .  S
C589        O604   1.277       .  A
C589        H614   1.081       .  S
O590        C613   1.274       .  A
O591       Mg605   2.128       .  S
O592       Mg622   2.448       .  S
C593        O606   1.288       .  A
C593        O598   1.268       .  A
C593        C629   1.499       .  S
C594        O621   1.262       .  A
C594       C1029   1.490       .  S
Mg595       O602   2.134       .  S
Mg595       O603   2.134       .  S
Mg595       O596   2.288       .  S
Mg595       O597   2.307       .  S
Mg595       O624   2.190       .  S
O597        C601   1.274       .  A
O598       Mg605   2.294       .  S
O599        C618   1.290       .  A
O600        C620   1.295       .  A
O600       Mg616   2.458       .  S
O602       Mg616   2.137       .  S
O602        C613   1.240       .  S
O603       Mg622   2.174       .  S
O604       Mg616   2.325       .  S
Mg605       O621   2.194       .  S
O606       Mg622   2.370       .  S
H607        C612   1.081       .  S
O608       Mg616   2.168       .  S
O608        C611   1.241       .  S
H609        C611   1.081       .  S
H610        C613   1.081       .  S
O615       Mg622   2.326       .  S
C618        O623   1.266       .  A
C618       C1025   1.497       .  S
O619        C620   1.260       .  A
C620        C993   1.485   1_545  S
C625        N626   1.350       .  A
C625        N630   1.354       .  A
C625       C1346   1.417       .  S
N626        C627   1.348       .  A
C627        C672   1.497       .  S
C627        N628   1.379       .  A
N628        C629   1.383       .  A
C629        N630   1.357       .  A
O631       Mg633   2.131       .  S
O631       Mg639   2.110       .  S
O631        C666   1.239       .  S
C632        O645   1.238       .  S
C632        O669   1.273       .  A
C632        H671   1.081       .  S
Mg633       O662   2.143       .  S
Mg633       O677   2.292       .  S
Mg633       O673   2.172       .  S
Mg633       O644   2.300       .  S
O634       Mg676   2.165       .  S
O634       Mg659   2.149       .  S
O634        C655   1.241       .  S
O635        C666   1.275       .  A
O635       Mg659   2.323       .  S
C636        O638   1.292       .  A
C636        O650   1.274       .  A
C636        C681   1.510       .  S
O637        C665   1.280       .  A
O637       Mg639   2.336       .  S
O638       Mg670   2.385       .  S
Mg639       O645   2.164       .  S
Mg639       O653   2.358       .  S
Mg639       O641   2.471       .  S
C640        O678   1.265       .  A
C640        O646   1.292       .  A
C640       C1013   1.482       .  S
O641        C648   1.292       .  A
H642        C655   1.081       .  S
C643        O657   1.239       .  S
C643        O658   1.275       .  A
C643        H668   1.081       .  S
O644        C667   1.273       .  A
O645       Mg659   2.104       .  S
O646       Mg676   2.418       .  S
C647        O660   1.291       .  A
C647        O652   1.263       .  A
C647        C743   1.501       .  S
C648        O675   1.254       .  A
C648       C1037   1.489       .  S
Mg649       O656   2.150       .  S
Mg649       O657   2.146       .  S
Mg649       O650   2.331       .  S
Mg649       O651   2.304       .  S
Mg649       O678   2.203       .  S
O651        C655   1.275       .  A
O652       Mg659   2.256       .  S
O653        C672   1.287       .  A
O654        C674   1.297       .  A
O654       Mg670   2.470       .  S
O656       Mg670   2.142       .  S
O656        C667   1.239       .  S
O657       Mg676   2.189       .  S
O658       Mg670   2.322       .  S
Mg659       O675   2.213       .  S
O660       Mg676   2.401       .  S
H661        C666   1.081       .  S
O662       Mg670   2.179       .  S
O662        C665   1.244       .  S
H663        C665   1.081       .  S
H664        C667   1.081       .  S
O669       Mg676   2.310       .  S
C672        O677   1.266       .  A
O673        C674   1.260       .  A
C674       C1031   1.490       .  S
C679        N680   1.355       .  A
C679        N684   1.354       .  A
C679       C1064   1.423       .  S
N680        C681   1.356       .  A
C681        N682   1.383       .  A
N682        C683   1.383       .  A
C683        C696   1.505       .  S
C683        N684   1.352       .  A
C685        N686   1.355       .  A
C685        N690   1.355       .  A
C685       C1150   1.420   1_554  S
N686        C687   1.352       .  A
C687        C761   1.505       .  S
C687        N688   1.383       .  A
N688        C689   1.381       .  A
C689        C732   1.508       .  S
C689        N690   1.354       .  A
O691       Mg693   2.139       .  S
O691       Mg699   2.137       .  S
O691        C726   1.239       .  S
C692        O705   1.243       .  S
C692        O729   1.280       .  A
C692        H731   1.081       .  S
Mg693       O722   2.150       .  S
Mg693       O737   2.326       .  S
Mg693       O733   2.185       .  S
Mg693       O704   2.297       .  S
O694       Mg736   2.110       .  S
O694       Mg719   2.136       .  S
O694        C715   1.240       .  S
O695        C726   1.272       .  A
O695       Mg719   2.300       .  S
C696        O698   1.291       .  A
C696        O710   1.267       .  A
O697        C725   1.275       .  A
O697       Mg699   2.318       .  S
O698       Mg730   2.396       .  S
Mg699       O705   2.178       .  S
Mg699       O713   2.379       .  S
Mg699       O701   2.460       .  S
C700        O738   1.257       .  A
C700        O706   1.292       .  A
C700       C1011   1.486       .  S
O701        C708   1.295       .  A
H702        C715   1.081       .  S
C703        O717   1.237       .  S
C703        O718   1.273       .  A
C703        H728   1.081       .  S
O704        C727   1.274       .  A
O705       Mg719   2.133       .  S
O706       Mg736   2.464       .  S
C707        O720   1.286       .  A
C707        O712   1.265       .  A
C707       C1019   1.497       .  S
C708        O735   1.259       .  A
C708       C1001   1.483       .  S
Mg709       O716   2.145       .  S
Mg709       O717   2.107       .  S
Mg709       O710   2.284       .  S
Mg709       O711   2.324       .  S
Mg709       O738   2.200       .  S
O711        C715   1.276       .  A
O712       Mg719   2.289       .  S
O713        C732   1.291       .  A
O714        C734   1.292       .  A
O714       Mg730   2.421       .  S
O716       Mg730   2.162       .  S
O716        C727   1.241       .  S
O717       Mg736   2.162       .  S
O718       Mg730   2.310       .  S
Mg719       O735   2.170       .  S
O720       Mg736   2.356       .  S
H721        C726   1.081       .  S
O722       Mg730   2.187       .  S
O722        C725   1.239       .  S
H723        C725   1.081       .  S
H724        C727   1.081       .  S
O729       Mg736   2.337       .  S
C732        O737   1.274       .  A
O733        C734   1.263       .  A
C734        C989   1.481       .  S
C739        N740   1.353       .  A
C739        N744   1.354       .  A
C739       C1206   1.418       .  S
N740        C741   1.354       .  A
C741        N742   1.380       .  A
N742        C743   1.382       .  A
C743        N744   1.351       .  A
O745       Mg747   2.125       .  S
O745       Mg753   2.102       .  S
O745        C780   1.239       .  S
C746        O759   1.238       .  S
C746        O783   1.274       .  A
C746        H785   1.081       .  S
Mg747       O776   2.137       .  S
Mg747       O791   2.294       .  S
Mg747       O787   2.177       .  S
Mg747       O758   2.293       .  S
O748       Mg790   2.163       .  S
O748       Mg773   2.153       .  S
O748        C769   1.241       .  S
O749        C780   1.276       .  A
O749       Mg773   2.327       .  S
C750        O752   1.289       .  A
C750        O764   1.274       .  A
C750       C1049   1.506       .  S
O751        C779   1.280       .  A
O751       Mg753   2.332       .  S
O752       Mg784   2.370       .  S
Mg753       O759   2.183       .  S
Mg753       O767   2.360       .  S
Mg753       O755   2.452       .  S
C754        O792   1.263       .  A
C754        O760   1.295       .  A
C754        C797   1.488       .  S
O755        C762   1.287       .  A
H756        C769   1.081       .  S
C757        O771   1.240       .  S
C757        O772   1.276       .  A
C757        H782   1.081       .  S
O758        C781   1.271       .  A
O759       Mg773   2.101       .  S
O760       Mg790   2.444       .  S
C761        O774   1.292       .  A
C761        O766   1.265       .  A
C762        O789   1.253       .  A
C762        C987   1.482       .  S
Mg763       O770   2.136       .  S
Mg763       O771   2.146       .  S
Mg763       O764   2.329       .  S
Mg763       O765   2.305       .  S
Mg763       O792   2.187       .  S
O765        C769   1.275       .  A
O766       Mg773   2.269       .  S
O767        C786   1.286       .  A
O768        C788   1.295       .  A
O768       Mg784   2.452       .  S
O770       Mg784   2.137       .  S
O770        C781   1.238       .  S
O771       Mg790   2.186       .  S
O772       Mg784   2.319       .  S
Mg773       O789   2.214       .  S
O774       Mg790   2.405       .  S
H775        C780   1.081       .  S
O776       Mg784   2.173       .  S
O776        C779   1.243       .  S
H777        C779   1.081       .  S
H778        C781   1.081       .  S
O783       Mg790   2.322       .  S
C786        O791   1.267       .  A
C786       C1023   1.497       .  S
O787        C788   1.261       .  A
C788        C995   1.485       .  S
C793        N794   1.363       .  A
C793        N798   1.359       .  A
C793       C1388   1.419       .  S
N794        C795   1.354       .  A
C795        C870   1.491       .  S
C795        N796   1.367   1_556  A
N796        C797   1.371       .  A
C797        N798   1.352   1_554  A
O799       Mg801   2.145       .  S
O799       Mg807   2.155       .  S
O799        C834   1.241       .  S
C800        O813   1.240       .  S
C800        O837   1.276       .  A
C800        H839   1.081       .  S
Mg801       O830   2.115       .  S
Mg801       O845   2.278       .  S
Mg801       O841   2.196       .  S
Mg801       O812   2.320       .  S
O802       Mg844   2.137       .  S
O802       Mg827   2.142       .  S
O802        C823   1.239       .  S
O803        C834   1.274       .  A
O803       Mg827   2.302       .  S
C804        O806   1.285       .  A
C804        O818   1.269       .  A
C804        C971   1.498       .  S
O805        C833   1.274       .  A
O805       Mg807   2.318       .  S
O806       Mg838   2.344       .  S
Mg807       O813   2.190       .  S
Mg807       O821   2.406       .  S
Mg807       O809   2.444       .  S
C808        O846   1.262       .  A
C808        O814   1.296       .  A
C808       C1007   1.489       .  S
O809        C816   1.294       .  A
H810        C823   1.081       .  S
C811        O825   1.242       .  S
C811        O826   1.279       .  A
C811        H836   1.081       .  S
O812        C835   1.275       .  A
O813       Mg827   2.147       .  S
O814       Mg844   2.466       .  S
C815        O828   1.292       .  A
C815        O820   1.275       .  A
C815        C977   1.514       .  S
C816        O843   1.264       .  A
C816        C983   1.489       .  S
Mg817       O824   2.141       .  S
Mg817       O825   2.139       .  S
Mg817       O818   2.316       .  S
Mg817       O819   2.298       .  S
Mg817       O846   2.178       .  S
O819        C823   1.272       .  A
O820       Mg827   2.337       .  S
O821        C840   1.292       .  A
O822        C842   1.290       .  A
O822       Mg838   2.444       .  S
O824       Mg838   2.112       .  S
O824        C835   1.240       .  S
O825       Mg844   2.185       .  S
O826       Mg838   2.332       .  S
Mg827       O843   2.191       .  S
O828       Mg844   2.392       .  S
H829        C834   1.081       .  S
O830       Mg838   2.167       .  S
O830        C833   1.239       .  S
H831        C833   1.081       .  S
H832        C835   1.081       .  S
O837       Mg844   2.321       .  S
C840        O845   1.265       .  A
C840       C1055   1.507       .  S
O841        C842   1.257       .  A
C842        C849   1.480       .  S
C847        N848   1.360       .  A
C847        N852   1.363       .  A
C847       C1332   1.419       .  S
N848        C849   1.349       .  A
C849        N850   1.362   1_545  A
N850        C851   1.367       .  A
C851        C862   1.485       .  S
C851        N852   1.357   1_565  A
O853       Mg855   2.150       .  S
O853       Mg861   2.113       .  S
O853        C888   1.240       .  S
C854        O867   1.239       .  S
C854        O891   1.275       .  A
C854        H893   1.081       .  S
Mg855       O884   2.139       .  S
Mg855       O899   2.314       .  S
Mg855       O895   2.202       .  S
Mg855       O866   2.299       .  S
O856       Mg898   2.156       .  S
O856       Mg881   2.148       .  S
O856        C877   1.241       .  S
O857        C888   1.277       .  A
O857       Mg881   2.328       .  S
C858        O860   1.291       .  A
C858        O872   1.276       .  A
C858       C1053   1.513       .  S
O859        C887   1.281       .  A
O859       Mg861   2.339       .  S
O860       Mg892   2.387       .  S
Mg861       O867   2.175       .  S
Mg861       O875   2.367       .  S
Mg861       O863   2.479       .  S
C862        O900   1.264       .  A
C862        O868   1.292       .  A
O863        C870   1.294       .  A
H864        C877   1.081       .  S
C865        O879   1.239       .  S
C865        O880   1.275       .  A
C865        H890   1.081       .  S
O866        C889   1.272       .  A
O867       Mg881   2.107       .  S
O868       Mg898   2.431       .  S
C869        O882   1.290       .  A
C869        O874   1.266       .  A
C869       C1047   1.504       .  S
C870        O897   1.256       .  A
Mg871       O878   2.143       .  S
Mg871       O879   2.143       .  S
Mg871       O872   2.340       .  S
Mg871       O873   2.304       .  S
Mg871       O900   2.190       .  S
O873        C877   1.275       .  A
O874       Mg881   2.283       .  S
O875        C894   1.288       .  A
O876        C896   1.295       .  A
O876       Mg892   2.457       .  S
O878       Mg892   2.138       .  S
O878        C889   1.239       .  S
O879       Mg898   2.189       .  S
O880       Mg892   2.318       .  S
Mg881       O897   2.207       .  S
O882       Mg898   2.390       .  S
H883        C888   1.081       .  S
O884       Mg892   2.189       .  S
O884        C887   1.243       .  S
H885        C887   1.081       .  S
H886        C889   1.081       .  S
O891       Mg898   2.320       .  S
C894        O899   1.270       .  A
C894       C1041   1.504       .  S
O895        C896   1.264       .  A
C896        C951   1.491       .  S
O901       Mg903   2.133       .  S
O901       Mg909   2.140       .  S
O901        C936   1.240       .  S
C902        O915   1.240       .  S
C902        O939   1.275       .  A
C902        H941   1.081       .  S
Mg903       O932   2.130       .  S
Mg903       O947   2.286       .  S
Mg903       O943   2.177       .  S
Mg903       O914   2.307       .  S
O904       Mg946   2.140       .  S
O904       Mg929   2.138       .  S
O904        C925   1.239       .  S
O905        C936   1.273       .  A
O905       Mg929   2.297       .  S
C906        O908   1.288       .  A
C906        O920   1.267       .  A
C906        C959   1.497       .  S
O907        C935   1.275       .  A
O907       Mg909   2.315       .  S
O908       Mg940   2.358       .  S
Mg909       O915   2.169       .  S
Mg909       O923   2.384       .  S
Mg909       O911   2.456       .  S
C910        O948   1.262       .  A
C910        O916   1.293       .  A
C910        C965   1.484       .  S
O911        C918   1.295       .  A
H912        C925   1.081       .  S
C913        O927   1.240       .  S
C913        O928   1.276       .  A
C913        H938   1.081       .  S
O914        C937   1.275       .  A
O915       Mg929   2.136       .  S
O916       Mg946   2.443       .  S
C917        O930   1.288       .  A
C917        O922   1.269       .  A
C917       C1017   1.496       .  S
C918        O945   1.261       .  A
C918        C999   1.487   1_556  S
Mg919       O926   2.148       .  S
Mg919       O927   2.132       .  S
Mg919       O920   2.292       .  S
Mg919       O921   2.300       .  S
Mg919       O948   2.191       .  S
O921        C925   1.273       .  A
O922       Mg929   2.295       .  S
O923        C942   1.291       .  A
O924        C944   1.293       .  A
O924       Mg940   2.448       .  S
O926       Mg940   2.137       .  S
O926        C937   1.241       .  S
O927       Mg946   2.161       .  S
O928       Mg940   2.322       .  S
Mg929       O945   2.175       .  S
O930       Mg946   2.358       .  S
H931        C936   1.081       .  S
O932       Mg940   2.161       .  S
O932        C935   1.240       .  S
H933        C935   1.081       .  S
H934        C937   1.081       .  S
O939       Mg946   2.316       .  S
C942        O947   1.266       .  A
C942       C1043   1.502   1_455  S
O943        C944   1.260       .  A
C944        C953   1.483   1_455  S
C949        N950   1.364       .  A
C949        N954   1.361   1_655  A
C949       C1234   1.422       .  S
N950        C951   1.356       .  A
C951        N952   1.367       .  A
N952        C953   1.366       .  A
C953        N954   1.351   1_655  A
C955        N956   1.350   1_655  A
C955        N960   1.349   1_655  A
C955       C1094   1.412       .  S
N956        C957   1.349       .  A
C957        N958   1.382       .  A
N958        C959   1.384       .  A
C959        N960   1.353       .  A
C961        N962   1.362       .  A
C961        N966   1.360       .  A
C961       C1108   1.417       .  S
N962        C963   1.353       .  A
C963        N964   1.367       .  A
N964        C965   1.366       .  A
C965        N966   1.352       .  A
C967        N968   1.356       .  A
C967        N972   1.349   1_565  A
C967       C1122   1.419       .  S
N968        C969   1.358   1_565  A
C969        N970   1.383       .  A
N970        C971   1.379       .  A
C971        N972   1.348       .  A
C973        N974   1.354   1_655  A
C973        N978   1.358       .  A
C973       C1248   1.425       .  S
N974        C975   1.351       .  A
C975        N976   1.384   1_455  A
N976        C977   1.384       .  A
C977        N978   1.358       .  A
C979        N980   1.361       .  A
C979        N984   1.361       .  A
C979       C1260   1.421       .  S
N980        C981   1.350       .  A
C981        N982   1.366   1_455  A
N982        C983   1.371       .  A
C983        N984   1.356   1_655  A
C985        N986   1.362       .  A
C985        N990   1.359       .  A
C985       C1134   1.419       .  S
N986        C987   1.354       .  A
C987        N988   1.364       .  A
N988        C989   1.368       .  A
C989        N990   1.352       .  A
C991        N992   1.363       .  A
C991        N996   1.360       .  A
C991       C1318   1.418       .  S
N992        C993   1.355       .  A
C993        N994   1.367       .  A
N994        C995   1.367       .  A
C995        N996   1.350       .  A
C997        N998   1.362       .  A
C997       N1002   1.362       .  A
C997       C1288   1.417       .  S
N998        C999   1.353       .  A
C999       N1000   1.368       .  A
N1000      C1001   1.365       .  A
C1001      N1002   1.351       .  A
C1003      N1004   1.361       .  A
C1003      N1008   1.364       .  A
C1003      C1080   1.419       .  S
N1004      C1005   1.350       .  A
C1005      N1006   1.365       .  A
N1006      C1007   1.368       .  A
C1007      N1008   1.355       .  A
C1009      N1010   1.364       .  A
C1009      N1014   1.357       .  A
C1009      C1374   1.419       .  S
N1010      C1011   1.357       .  A
C1011      N1012   1.367       .  A
N1012      C1013   1.367       .  A
C1013      N1014   1.350       .  A
C1015      N1016   1.352   1_554  A
C1015      N1020   1.350       .  A
C1015      C1304   1.412       .  S
N1016      C1017   1.354       .  A
C1017      N1018   1.381   1_556  A
N1018      C1019   1.380       .  A
C1019      N1020   1.348       .  A
C1021      N1022   1.353       .  A
C1021      N1026   1.352       .  A
C1021      C1274   1.415       .  S
N1022      C1023   1.355       .  A
C1023      N1024   1.382       .  A
N1024      C1025   1.379   1_565  A
C1025      N1026   1.349   1_545  A
C1027      N1028   1.363       .  A
C1027      N1032   1.361       .  A
C1027      C1360   1.419       .  S
N1028      C1029   1.355       .  A
C1029      N1030   1.368       .  A
N1030      C1031   1.369       .  A
C1031      N1032   1.351       .  A
C1033      N1034   1.362       .  A
C1033      N1038   1.361       .  A
C1033      C1220   1.421       .  S
N1034      C1035   1.356       .  A
C1035      N1036   1.372       .  A
N1036      C1037   1.368       .  A
C1037      N1038   1.351       .  A
C1039      N1040   1.354   1_554  A
C1039      N1044   1.351       .  A
C1039      C1192   1.417       .  S
N1040      C1041   1.358       .  A
C1041      N1042   1.385       .  A
N1042      C1043   1.381       .  A
C1043      N1044   1.346   1_556  A
C1045      N1046   1.355   1_554  A
C1045      N1050   1.355       .  A
C1045      C1164   1.423   1_565  S
N1046      C1047   1.353       .  A
C1047      N1048   1.382   1_556  A
N1048      C1049   1.381       .  A
C1049      N1050   1.356       .  A
C1051      N1052   1.356       .  A
C1051      N1056   1.353   1_565  A
C1051      C1176   1.423   1_655  S
N1052      C1053   1.357       .  A
C1053      N1054   1.384       .  A
N1054      C1055   1.385   1_565  A
C1055      N1056   1.351       .  A
C1057      C1065   1.428       .  S
C1057      C1058   1.398       .  A
C1057      C1062   1.400       .  A
C1058      H1067   1.084       .  S
C1058      C1059   1.392       .  A
C1059      H1068   1.084       .  S
C1059      C1060   1.398       .  A
C1060      C1063   1.427       .  S
C1060      C1061   1.400       .  A
C1061      H1069   1.083       .  S
C1061      C1062   1.397       .  A
C1062      H1070   1.083       .  S
C1063      C1064   1.198       .  T
C1065      C1066   1.199       .  T
C1071      C1079   1.425       .  S
C1071      C1072   1.397       .  A
C1071      C1076   1.400       .  A
C1072      H1081   1.084       .  S
C1072      C1073   1.392       .  A
C1073      H1082   1.084       .  S
C1073      C1074   1.400       .  A
C1074      C1077   1.424       .  S
C1074      C1075   1.398       .  A
C1075      H1083   1.083       .  S
C1075      C1076   1.394       .  A
C1076      H1084   1.084       .  S
C1077      C1078   1.196       .  T
C1079      C1080   1.197       .  T
C1085      C1093   1.418       .  S
C1085      C1086   1.398       .  A
C1085      C1090   1.397       .  A
C1086      H1095   1.084       .  S
C1086      C1087   1.393       .  A
C1087      H1096   1.084       .  S
C1087      C1088   1.400       .  A
C1088      C1091   1.418       .  S
C1088      C1089   1.398       .  A
C1089      H1097   1.084       .  S
C1089      C1090   1.389       .  A
C1090      H1098   1.084       .  S
C1091      C1092   1.193       .  T
C1093      C1094   1.192       .  T
C1099      C1107   1.422       .  S
C1099      C1100   1.399       .  A
C1099      C1104   1.397       .  A
C1100      H1109   1.084       .  S
C1100      C1101   1.392       .  A
C1101      H1110   1.084       .  S
C1101      C1102   1.398       .  A
C1102      C1105   1.420       .  S
C1102      C1103   1.398       .  A
C1103      H1111   1.084       .  S
C1103      C1104   1.391       .  A
C1104      H1112   1.084       .  S
C1105      C1106   1.194       .  T
C1107      C1108   1.195       .  T
C1113      C1121   1.425       .  S
C1113      C1114   1.401       .  A
C1113      C1118   1.396       .  A
C1114      H1123   1.084       .  S
C1114      C1115   1.393       .  A
C1115      H1124   1.084       .  S
C1115      C1116   1.397       .  A
C1116      C1119   1.423       .  S
C1116      C1117   1.402       .  A
C1117      H1125   1.084       .  S
C1117      C1118   1.392       .  A
C1118      H1126   1.084       .  S
C1119      C1120   1.196       .  T
C1121      C1122   1.197       .  T
C1127      C1135   1.423       .  S
C1127      C1128   1.397       .  A
C1127      C1132   1.398       .  A
C1128      H1137   1.084       .  S
C1128      C1129   1.392       .  A
C1129      H1138   1.084       .  S
C1129      C1130   1.400       .  A
C1130      C1133   1.421       .  S
C1130      C1131   1.400       .  A
C1131      H1139   1.084       .  S
C1131      C1132   1.393       .  A
C1132      H1140   1.084       .  S
C1133      C1134   1.194       .  T
C1135      C1136   1.195       .  T
C1141      C1149   1.425       .  S
C1141      C1142   1.399       .  A
C1141      C1146   1.398       .  A
C1142      H1151   1.084       .  S
C1142      C1143   1.392       .  A
C1143      H1152   1.084       .  S
C1143      C1144   1.398       .  A
C1144      C1147   1.425       .  S
C1144      C1145   1.400       .  A
C1145      H1153   1.084       .  S
C1145      C1146   1.394       .  A
C1146      H1154   1.084       .  S
C1147      C1148   1.197       .  T
C1149      C1150   1.197       .  T
C1155      C1163   1.428       .  S
C1155      C1156   1.400       .  A
C1155      C1160   1.399   1_554  A
C1156      H1165   1.083       .  S
C1156      C1157   1.397       .  A
C1157      H1166   1.083       .  S
C1157      C1158   1.400       .  A
C1158      C1161   1.428       .  S
C1158      C1159   1.398   1_554  A
C1159      H1167   1.084       .  S
C1159      C1160   1.392       .  A
C1160      H1168   1.084       .  S
C1161      C1162   1.199   1_554  T
C1163      C1164   1.199       .  T
C1169      C1177   1.428       .  S
C1169      C1170   1.401   1_545  A
C1169      C1174   1.398       .  A
C1170      H1179   1.084       .  S
C1170      C1171   1.395       .  A
C1171      H1180   1.083       .  S
C1171      C1172   1.398       .  A
C1172      C1175   1.428       .  S
C1172      C1173   1.401   1_565  A
C1173      H1181   1.084       .  S
C1173      C1174   1.394       .  A
C1174      H1182   1.084       .  S
C1175      C1176   1.199       .  T
C1177      C1178   1.199       .  T
C1183      C1191   1.424       .  S
C1183      C1184   1.402   1_655  A
C1183      C1188   1.395       .  A
C1184      H1193   1.084       .  S
C1184      C1185   1.391       .  A
C1185      H1194   1.084       .  S
C1185      C1186   1.395       .  A
C1186      C1189   1.422       .  S
C1186      C1187   1.404       .  A
C1187      H1195   1.084       .  S
C1187      C1188   1.394   1_455  A
C1188      H1196   1.083       .  S
C1189      C1190   1.195       .  T
C1191      C1192   1.195       .  T
C1197      C1205   1.423       .  S
C1197      C1198   1.400       .  A
C1197      C1202   1.397       .  A
C1198      H1207   1.084       .  S
C1198      C1199   1.391       .  A
C1199      H1208   1.084       .  S
C1199      C1200   1.396       .  A
C1200      C1203   1.424       .  S
C1200      C1201   1.401       .  A
C1201      H1209   1.084       .  S
C1201      C1202   1.394       .  A
C1202      H1210   1.083       .  S
C1203      C1204   1.196       .  T
C1205      C1206   1.196       .  T
C1211      C1219   1.423       .  S
C1211      C1212   1.396       .  A
C1211      C1216   1.403       .  A
C1212      H1221   1.084       .  S
C1212      C1213   1.390       .  A
C1213      H1222   1.084       .  S
C1213      C1214   1.400       .  A
C1214      C1217   1.425       .  S
C1214      C1215   1.397       .  A
C1215      H1223   1.083       .  S
C1215      C1216   1.396       .  A
C1216      H1224   1.084       .  S
C1217      C1218   1.196       .  T
C1219      C1220   1.196       .  T
C1225      C1233   1.427       .  S
C1225      C1226   1.401       .  A
C1225      C1230   1.398       .  A
C1226      H1235   1.084       .  S
C1226      C1227   1.395       .  A
C1227      H1236   1.084       .  S
C1227      C1228   1.398       .  A
C1228      C1231   1.426       .  S
C1228      C1229   1.400       .  A
C1229      H1237   1.084       .  S
C1229      C1230   1.393       .  A
C1230      H1238   1.084       .  S
C1231      C1232   1.198       .  T
C1233      C1234   1.198   1_455  T
C1239      C1247   1.430       .  S
C1239      C1240   1.400   1_655  A
C1239      C1244   1.399       .  A
C1240      H1249   1.084       .  S
C1240      C1241   1.394       .  A
C1241      H1250   1.084       .  S
C1241      C1242   1.399       .  A
C1242      C1245   1.430       .  S
C1242      C1243   1.400   1_455  A
C1243      H1251   1.084       .  S
C1243      C1244   1.396       .  A
C1244      H1252   1.083       .  S
C1245      C1246   1.200       .  T
C1247      C1248   1.200       .  T
C1253      C1261   1.426       .  S
C1253      C1254   1.402       .  A
C1253      C1258   1.395       .  A
C1254      H1263   1.084       .  S
C1254      C1255   1.393       .  A
C1255      H1264   1.084       .  S
C1255      C1256   1.396       .  A
C1256      C1259   1.424       .  S
C1256      C1257   1.403       .  A
C1257      H1265   1.084       .  S
C1257      C1258   1.393       .  A
C1258      H1266   1.083       .  S
C1259      C1260   1.197       .  T
C1261      C1262   1.197       .  T
C1267      C1275   1.419       .  S
C1267      C1268   1.396       .  A
C1267      C1272   1.399   1_545  A
C1268      H1277   1.083       .  S
C1268      C1269   1.394       .  A
C1269      H1278   1.084       .  S
C1269      C1270   1.402   1_545  A
C1270      C1273   1.419       .  S
C1270      C1271   1.395       .  A
C1271      H1279   1.084       .  S
C1271      C1272   1.388       .  A
C1272      H1280   1.084       .  S
C1273      C1274   1.193       .  T
C1275      C1276   1.192       .  T
C1281      C1289   1.423       .  S
C1281      C1282   1.397   1_554  A
C1281      C1286   1.400       .  A
C1282      H1291   1.084       .  S
C1282      C1283   1.391   1_556  A
C1283      H1292   1.084   1_554  S
C1283      C1284   1.399       .  A
C1284      C1287   1.422       .  S
C1284      C1285   1.398       .  A
C1285      H1293   1.084       .  S
C1285      C1286   1.394       .  A
C1286      H1294   1.084       .  S
C1287      C1288   1.195       .  T
C1289      C1290   1.196       .  T
C1295      C1303   1.419       .  S
C1295      C1296   1.397       .  A
C1295      C1300   1.398       .  A
C1296      H1305   1.084       .  S
C1296      C1297   1.392       .  A
C1297      H1306   1.084       .  S
C1297      C1298   1.399       .  A
C1298      C1301   1.418       .  S
C1298      C1299   1.399       .  A
C1299      H1307   1.084       .  S
C1299      C1300   1.391       .  A
C1300      H1308   1.084   1_554  S
C1301      C1302   1.193       .  T
C1303      C1304   1.192       .  T
C1309      C1317   1.423       .  S
C1309      C1310   1.398       .  A
C1309      C1314   1.399   1_545  A
C1310      H1319   1.084       .  S
C1310      C1311   1.392       .  A
C1311      H1320   1.084       .  S
C1311      C1312   1.399       .  A
C1312      C1315   1.423       .  S
C1312      C1313   1.398       .  A
C1313      H1321   1.084   1_545  S
C1313      C1314   1.393   1_545  A
C1314      H1322   1.084       .  S
C1315      C1316   1.196       .  T
C1317      C1318   1.196   1_545  T
C1323      C1331   1.425       .  S
C1323      C1324   1.404       .  A
C1323      C1328   1.395       .  A
C1324      H1333   1.084       .  S
C1324      C1325   1.393       .  A
C1325      H1334   1.083       .  S
C1325      C1326   1.394       .  A
C1326      C1329   1.425       .  S
C1326      C1327   1.403       .  A
C1327      H1335   1.084       .  S
C1327      C1328   1.393       .  A
C1328      H1336   1.083       .  S
C1329      C1330   1.196       .  T
C1331      C1332   1.196       .  T
C1337      C1345   1.423       .  S
C1337      C1338   1.395       .  A
C1337      C1342   1.401       .  A
C1338      H1347   1.083       .  S
C1338      C1339   1.393       .  A
C1339      H1348   1.084       .  S
C1339      C1340   1.403       .  A
C1340      C1343   1.422       .  S
C1340      C1341   1.395       .  A
C1341      H1349   1.084       .  S
C1341      C1342   1.391       .  A
C1342      H1350   1.084       .  S
C1343      C1344   1.195       .  T
C1345      C1346   1.195       .  T
C1351      C1359   1.425       .  S
C1351      C1352   1.398       .  A
C1351      C1356   1.399       .  A
C1352      H1361   1.084       .  S
C1352      C1353   1.394       .  A
C1353      H1362   1.084       .  S
C1353      C1354   1.400       .  A
C1354      C1357   1.425       .  S
C1354      C1355   1.398       .  A
C1355      H1363   1.084       .  S
C1355      C1356   1.393       .  A
C1356      H1364   1.084       .  S
C1357      C1358   1.197       .  T
C1359      C1360   1.197       .  T
C1365      C1373   1.420       .  S
C1365      C1366   1.401       .  A
C1365      C1370   1.397       .  A
C1366      H1375   1.084       .  S
C1366      C1367   1.392       .  A
C1367      H1376   1.084       .  S
C1367      C1368   1.396       .  A
C1368      C1371   1.421       .  S
C1368      C1369   1.399       .  A
C1369      H1377   1.084       .  S
C1369      C1370   1.391       .  A
C1370      H1378   1.084       .  S
C1371      C1372   1.194       .  T
C1373      C1374   1.195       .  T
C1379      C1387   1.421       .  S
C1379      C1380   1.400       .  A
C1379      C1384   1.399       .  A
C1380      H1389   1.084       .  S
C1380      C1381   1.391       .  A
C1381      H1390   1.084       .  S
C1381      C1382   1.396       .  A
C1382      C1385   1.424       .  S
C1382      C1383   1.400       .  A
C1383      H1391   1.084       .  S
C1383      C1384   1.393       .  A
C1384      H1392   1.084       .  S
C1385      C1386   1.196       .  T
C1387      C1388   1.195       .  T
