geometry optimzed in LAMMPS
_audit_creation_date              2020-11-30 
_audit_creation_method            'lammps2cif' 
_symmetry_space_group_name_H-M    'P1' 
_symmetry_Int_Tables_number       1 
_symmetry_cell_setting            triclinic 
loop_ 
_symmetry_equiv_pos_as_xyz 
  x,y,z 
_cell_length_a                    69.65538901 
_cell_length_b                    69.47096662973706 
_cell_length_c                    69.49682421182777 
_cell_angle_alpha                 90.05221728994152 
_cell_angle_beta                  90.16282899214693 
_cell_angle_gamma                 89.9164286448657 
loop_ 
_atom_site_label 
_atom_site_type_symbol 
_atom_site_fract_x 
_atom_site_fract_y 
_atom_site_fract_z 
_atom_site_charge 
O1          O  0.66114872  0.62665106  0.60419021    -0.88500
C2          C  0.60879806  0.64108828  0.58361724     0.87500
Mg3        Mg  0.66588819  0.60004792  0.61845993     1.58100
O4          O  0.62017557  0.66449741  0.62717716    -0.88200
O5          O  0.66275902  0.65709384  0.61258123    -0.75600
C6          C  0.58981039  0.58856424  0.67641515     0.92600
O7          O  0.62884782  0.59928837  0.58653982    -0.75400
O8          O  0.60267613  0.57776555  0.66892390    -0.82900
Mg9        Mg  0.64676748  0.62532567  0.57683540     1.58000
C10         C  0.58123487  0.66822200  0.67146473     0.92500
O11         O  0.66456583  0.65118188  0.56383577    -0.81100
H12         H  0.63802061  0.68103939  0.64252688    -0.06500
C13         C  0.58708537  0.61750565  0.63074357     0.87400
O14         O  0.66204919  0.61428285  0.64801241    -0.75700
O15         O  0.62554469  0.64421660  0.58874597    -0.88400
O16         O  0.58219674  0.67346241  0.65380472    -0.81200
C17         C  0.59235541  0.69199985  0.59185342     0.92600
C18         C  0.66267900  0.66954339  0.56360018     0.92500
Mg19       Mg  0.60972840  0.63161218  0.66520590     1.58000
O20         O  0.59069985  0.60681546  0.67519584    -0.81100
O21         O  0.62792042  0.65790699  0.65711792    -0.75400
O22         O  0.60922024  0.68605520  0.58824124    -0.81200
O23         O  0.66764462  0.60292556  0.56411904    -0.82900
O24         O  0.64808983  0.56700763  0.65418312    -0.81300
C25         C  0.62882063  0.66853336  0.64225113     0.86900
O26         O  0.63130696  0.61227189  0.65476703    -0.88400
O27         O  0.59561974  0.63151760  0.63769376    -0.88500
O28         O  0.59422918  0.60062630  0.63079937    -0.75600
Mg29       Mg  0.63504354  0.67072899  0.60116775     1.58000
O30         O  0.58366639  0.68694918  0.60723254    -0.82900
H31         H  0.68438385  0.63795762  0.61679570    -0.06700
O32         O  0.63606724  0.59305781  0.61668832    -0.88200
H33         H  0.61788104  0.57677093  0.60146577    -0.06500
H34         H  0.65052355  0.62281122  0.67341402    -0.06700
C35         C  0.62741765  0.58905700  0.60162897     0.86900
C36         C  0.67013192  0.64041862  0.61106287     0.87500
C37         C  0.64797417  0.61640118  0.65944037     0.87500
H38         H  0.57321713  0.61976247  0.62401539    -0.06600
O39         O  0.59455764  0.64468924  0.59447659    -0.75700
Mg40       Mg  0.62135884  0.58548349  0.64261365     1.58000
H41         H  0.60622586  0.63468895  0.56968350    -0.06700
C42         C  0.67267278  0.58699688  0.57182315     0.92500
O43         O  0.67225459  0.57310701  0.63437154    -0.82900
C44         C  0.66513128  0.56343243  0.64805341     0.92600
O45         O  0.65126706  0.67831550  0.57476976    -0.82900
Mg46       Mg  0.58997434  0.65878504  0.62416620     1.58200
O47         O  0.67162532  0.58418280  0.58991183    -0.81200
O48         O  0.58825362  0.65241143  0.67739316    -0.82900
O49         O  0.91462213  0.62478683  0.38664800    -0.88500
C50         C  0.86341919  0.65122560  0.39408641     0.87500
Mg51       Mg  0.91998167  0.60869008  0.36131459     1.58100
O52         O  0.86895811  0.60975477  0.42196480    -0.88200
O53         O  0.91290034  0.61996374  0.41782302    -0.75600
C54         C  0.84156809  0.55484319  0.34864223     0.92600
O55         O  0.88644863  0.64334811  0.35567405    -0.75400
O56         O  0.85618058  0.56009082  0.33892545    -0.82900
Mg57       Mg  0.90363446  0.65313319  0.38247280     1.58000
C58         C  0.82746343  0.56854203  0.42621092     0.92500
O59         O  0.92192079  0.66375299  0.40942305    -0.81100
H60         H  0.88362577  0.59495297  0.44182635    -0.06500
C61         C  0.83919959  0.60363583  0.37243334     0.87400
O62         O  0.91297004  0.58068224  0.37773326    -0.75700
O63         O  0.87930254  0.64512956  0.39944671    -0.88400
O64         O  0.82965384  0.58639797  0.43036251    -0.81200
C65         C  0.84166523  0.64923164  0.44364944     0.92600
C66         C  0.91812989  0.66643654  0.42727510     0.92500
Mg67       Mg  0.85786009  0.56962220  0.39214817     1.58000
O68         O  0.84063344  0.55819996  0.36658471    -0.81100
O69         O  0.87411754  0.57875776  0.41944335    -0.75400
O70         O  0.85903745  0.65108723  0.43856892    -0.81200
O71         O  0.92746472  0.66224525  0.36151271    -0.82900
O72         O  0.90328729  0.56911530  0.33665666    -0.81300
C73         C  0.87567529  0.59459567  0.42845991     0.86900
O74         O  0.88175732  0.57697791  0.37509294    -0.88400
O75         O  0.84616978  0.59782626  0.38783107    -0.88500
O76         O  0.84767680  0.60133019  0.35634099    -0.75600
Mg77       Mg  0.88508406  0.63503625  0.42751071     1.58000
O78         O  0.83246728  0.63387100  0.43951389    -0.82900
H79         H  0.93525618  0.61109828  0.40134001    -0.06700
O80         O  0.89088316  0.61206296  0.35294774    -0.88200
H81         H  0.87496262  0.62709496  0.33421733    -0.06500
H82         H  0.89849539  0.55777149  0.38853169    -0.06700
C83         C  0.88385401  0.62736439  0.34702404     0.86900
C84         C  0.92161365  0.61851901  0.40181363     0.87500
C85         C  0.89765643  0.57113870  0.38063239     0.87500
H86         H  0.82564786  0.61123829  0.37271035    -0.06600
O87         O  0.84793152  0.64198616  0.39719312    -0.75700
Mg88       Mg  0.87549968  0.58601557  0.34651185     1.58000
H89         H  0.86272617  0.66458829  0.38620332    -0.06700
C90         C  0.93132213  0.65351935  0.34580977     0.92500
O91         O  0.92630382  0.59115340  0.33511121    -0.82900
C92         C  0.92055839  0.57400632  0.33275810     0.92600
O93         O  0.90224364  0.66125372  0.43441016    -0.82900
Mg94       Mg  0.83971365  0.61414608  0.41343214     1.58200
O95         O  0.92836648  0.63552732  0.34391977    -0.81200
O96         O  0.83355126  0.56124868  0.41066853    -0.82900
O97         O  0.90525644  0.36077499  0.12227307    -0.88500
C98         C  0.85098957  0.34299344  0.11820119     0.87500
Mg99       Mg  0.91411984  0.37667703  0.14698735     1.58100
O100        O  0.86083911  0.38304900  0.08971851    -0.88200
O101        O  0.90295376  0.36640395  0.09125402    -0.75600
C102        C  0.84452672  0.44115378  0.16384053     0.92600
O103        O  0.87621133  0.34758629  0.15485022    -0.75400
O104        O  0.85891723  0.43443274  0.17306060    -0.82900
Mg105      Mg  0.89012842  0.33439201  0.12772622     1.58000
C106        C  0.82575594  0.42961590  0.08718752     0.92500
O107        O  0.90350039  0.31832265  0.10045969    -0.81100
H108        H  0.87646671  0.39583088  0.06930649    -0.06500
C109        C  0.83457166  0.39362840  0.14045184     0.87400
O110        O  0.91014450  0.40525385  0.13076348    -0.75700
O111        O  0.86710395  0.34597647  0.11136095    -0.88400
O112        O  0.82575818  0.41169482  0.08285791    -0.81200
C113        C  0.82641275  0.34807484  0.07088990     0.92600
C114        C  0.89905262  0.31701202  0.08253719     0.92500
Mg115      Mg  0.85665323  0.42421504  0.12002429     1.58000
O116        O  0.84228472  0.43699623  0.14622331    -0.81100
O117        O  0.87016781  0.41312027  0.09198144    -0.75400
O118        O  0.84387154  0.34337648  0.07359373    -0.81200
O119        O  0.91307710  0.32214833  0.14821847    -0.82900
O120        O  0.90360386  0.41758424  0.17461617    -0.81300
C121        C  0.86924461  0.39720535  0.08296817     0.86900
O122        O  0.88026408  0.41394765  0.13599847    -0.88400
O123        O  0.84207459  0.39803502  0.12492360    -0.88500
O124        O  0.84370759  0.39468506  0.15631238    -0.75600
Mg125      Mg  0.87286742  0.35581528  0.08295831     1.58000
O126        O  0.81999364  0.36466283  0.07542206    -0.82900
H127        H  0.92723233  0.37086881  0.10683222    -0.06700
O128        O  0.88530684  0.37780604  0.15745427    -0.88200
H129        H  0.86804395  0.36524615  0.17664535    -0.06500
H130        H  0.89866579  0.43043290  0.12138194    -0.06700
C131        C  0.87633145  0.36371336  0.16356878     0.86900
C132        C  0.91252647  0.36589538  0.10685782     0.87500
C133        C  0.89639484  0.41725309  0.12930263     0.87500
H134        H  0.81998449  0.38834197  0.14048452    -0.06600
O135        O  0.83719436  0.35488473  0.11636622    -0.75700
Mg136      Mg  0.87382776  0.40562141  0.16485321     1.58000
H137        H  0.84870792  0.33002728  0.12655929    -0.06700
C138        C  0.91929427  0.33088951  0.16316742     0.92500
O139        O  0.92508589  0.39386112  0.17208736    -0.82900
C140        C  0.92050812  0.41083275  0.17712044     0.92600
O141        O  0.88673353  0.32813559  0.07491382    -0.82900
Mg142      Mg  0.83201573  0.38314620  0.10007133     1.58200
O143        O  0.91951552  0.34918300  0.16414202    -0.81200
O144        O  0.83233493  0.43567476  0.10305032    -0.82900
C145        C  0.75403996  0.55976479  0.99212629     0.80100
N146        N  0.76701748  0.55087913  0.00385793    -0.78200
C147        C  0.76775364  0.53135415  0.00457885     0.82500
N148        N  0.75554839  0.52084715  0.99373459    -0.78200
C149        C  0.74264690  0.52940983  0.98203441     0.82600
N150        N  0.74178089  0.54898411  0.98115388    -0.79900
C151        C  0.05564807  0.49177010  0.25614365     0.80100
N152        N  0.04586741  0.48204345  0.24211929    -0.78200
C153        C  0.02632313  0.48207168  0.24202532     0.82500
N154        N  0.01670229  0.49158692  0.25593790    -0.78200
C155        C  0.02615199  0.50120870  0.26991250     0.82600
N156        N  0.04568397  0.50147003  0.27001555    -0.79900
O157        O  0.66129826  0.37716300  0.88634203    -0.88500
C158        C  0.61140739  0.37180853  0.91465138     0.87500
Mg159      Mg  0.66852270  0.40229637  0.87076339     1.58100
O160        O  0.61195040  0.34473051  0.87177880    -0.88200
O161        O  0.65675577  0.34655853  0.87943638    -0.75600
C162        C  0.58874394  0.42278052  0.82191743     0.92600
O163        O  0.63543832  0.40906758  0.90643085    -0.75400
O164        O  0.60438416  0.43139327  0.82615962    -0.82900
Mg165      Mg  0.65130805  0.38141857  0.91521753     1.58000
C166        C  0.56716892  0.34731569  0.83324111     0.92500
O167        O  0.66777540  0.35374407  0.92548191    -0.81100
H168        H  0.62464098  0.32474455  0.85543974    -0.06500
C169        C  0.58770701  0.39705338  0.86945640     0.87400
O170        O  0.65947803  0.38784966  0.84235640    -0.75700
O171        O  0.62635485  0.36548971  0.90744533    -0.88400
O172        O  0.56904956  0.34265151  0.85103052    -0.81200
C173        C  0.58557918  0.32528922  0.91275144     0.92600
C174        C  0.66399585  0.33574847  0.92673235     0.92500
Mg175      Mg  0.60292686  0.37771505  0.83369186     1.58000
O176        O  0.58655770  0.40485555  0.82487163    -0.81100
O177        O  0.61741863  0.34904529  0.84095741    -0.75400
O178        O  0.60375190  0.32703518  0.91268102    -0.81200
O179        O  0.67609036  0.40149158  0.92459037    -0.82900
O180        O  0.65212182  0.43407494  0.83470466    -0.81300
C181        C  0.61789744  0.33876811  0.85607779     0.86900
O182        O  0.62851967  0.39341854  0.84004955    -0.88400
O183        O  0.59291927  0.38146490  0.86256478    -0.88500
O184        O  0.59707824  0.41256956  0.86694401    -0.75600
Mg185      Mg  0.62960340  0.33737296  0.89557264     1.58000
O186        O  0.57537078  0.33150390  0.89869212    -0.82900
H187        H  0.67995754  0.36182792  0.87077685    -0.06700
O188        O  0.64043382  0.41354538  0.87545194    -0.88200
H189        H  0.62522703  0.43196393  0.89146914    -0.06500
H190        H  0.64325985  0.37992680  0.81936437    -0.06700
C191        C  0.63357048  0.41881002  0.89103843     0.86900
C192        C  0.66671199  0.36189427  0.87883977     0.87500
C193        C  0.64364298  0.38699993  0.83321948     0.87500
H194        H  0.57487050  0.39744033  0.87817915    -0.06600
O195        O  0.59532049  0.37067416  0.90610353    -0.75700
Mg196      Mg  0.62441684  0.42203808  0.85083654     1.58000
H197        H  0.61215477  0.37905337  0.92843507    -0.06700
C198        C  0.68114030  0.41666009  0.91555560     0.92500
O199        O  0.67731037  0.42780728  0.85362852    -0.82900
C200        C  0.66994272  0.43608279  0.83912817     0.92600
O201        O  0.64890436  0.32833063  0.91963477    -0.82900
Mg202      Mg  0.58410035  0.35657276  0.87843106     1.58200
O203        O  0.67861760  0.41816914  0.89751680    -0.81200
O204        O  0.57717820  0.36056177  0.82576131    -0.82900
O205        O  0.42096336  0.13212721  0.88631164    -0.88500
C206        C  0.36948601  0.15857141  0.89250387     0.87500
Mg207      Mg  0.42690017  0.11627512  0.86067292     1.58100
O208        O  0.37374941  0.11578462  0.91940863    -0.88200
O209        O  0.41804069  0.12582602  0.91708791    -0.75600
C210        C  0.34781195  0.06454926  0.84345260     0.92600
O211        O  0.39463062  0.15126830  0.85381882    -0.75400
O212        O  0.36292467  0.06956631  0.83437693    -0.82900
Mg213      Mg  0.41001657  0.16071757  0.88175171     1.58000
C214        C  0.33080965  0.07552055  0.92114564     0.92500
O215        O  0.42503793  0.17425812  0.90899417    -0.81100
H216        H  0.38760711  0.10014393  0.93920526    -0.06500
C217        C  0.34615079  0.11228444  0.86884764     0.87400
O218        O  0.41885119  0.08783356  0.87574637    -0.75700
O219        O  0.38517684  0.15222016  0.89806256    -0.88400
O220        O  0.33321293  0.09330245  0.92537730    -0.81200
C221        C  0.34618010  0.15450067  0.94161027     0.92600
C222        C  0.42060496  0.17602962  0.92677970     0.92500
Mg223      Mg  0.36307467  0.07686141  0.88799637     1.58000
O224        O  0.34623009  0.06723035  0.86147901    -0.81100
O225        O  0.37869342  0.08478758  0.91601083    -0.75400
O226        O  0.36387157  0.15684158  0.93779011    -0.81200
O227        O  0.43575003  0.16940526  0.86274258    -0.82900
O228        O  0.41061667  0.07799690  0.83219848    -0.81300
C229        C  0.38008746  0.10031690  0.92560245     0.86900
O230        O  0.38776213  0.08429598  0.87162543    -0.88400
O231        O  0.35217073  0.10547758  0.88422384    -0.88500
O232        O  0.35516593  0.11032758  0.85302136    -0.75600
Mg233      Mg  0.39009794  0.14067220  0.92630431     1.58000
O234        O  0.33708646  0.13957051  0.93601743    -0.82900
H235        H  0.44116893  0.11802837  0.90118136    -0.06700
O236        O  0.39845862  0.12007584  0.85089335    -0.88200
H237        H  0.38450843  0.13576197  0.83119804    -0.06500
H238        H  0.40389909  0.06456051  0.88503328    -0.06700
C239        C  0.39232303  0.13558371  0.84464118     0.86900
C240        C  0.42744949  0.12532454  0.90145175     0.87500
C241        C  0.40341439  0.07822257  0.87759079     0.87500
H242        H  0.33295108  0.12050390  0.86893947    -0.06600
O243        O  0.35392264  0.14927665  0.89487271    -0.75700
Mg244      Mg  0.38273111  0.09468408  0.84315976     1.58000
H245        H  0.36904408  0.17219445  0.88508135    -0.06700
C246        C  0.44096100  0.16080906  0.84736966     0.92500
O247        O  0.43405576  0.09962330  0.83413236    -0.82900
C248        C  0.42802484  0.08316351  0.82909884     0.92600
O249        O  0.40758602  0.16595255  0.93448758    -0.82900
Mg250      Mg  0.34492068  0.12100286  0.90982765     1.58200
O251        O  0.43677773  0.14320864  0.84460096    -0.81200
O252        O  0.33806290  0.06798624  0.90617986    -0.82900
C253        C  0.50207221  0.26356531  0.05723144     0.80100
N254        N  0.51595111  0.27339519  0.04740041    -0.78200
C255        C  0.51573671  0.27348801  0.02778607     0.82500
N256        N  0.50195994  0.26375496  0.01824645    -0.78200
C257        C  0.48807781  0.25407864  0.02765560     0.82600
N258        N  0.48809809  0.25393546  0.04727294    -0.79900
C259        C  0.49854416  0.24861636  0.70459066     0.80100
N260        N  0.50372192  0.26561700  0.71310930    -0.78200
C261        C  0.50370298  0.26721446  0.73267847     0.82500
N262        N  0.49868502  0.25184232  0.74341667    -0.78200
C263        C  0.49349981  0.23498040  0.73528990     0.82600
N264        N  0.49335653  0.23330249  0.71575795    -0.79900
C265        C  0.55897177  0.99209708  0.74994793     0.80100
N266        N  0.55048863  0.00441288  0.76277953    -0.78200
C267        C  0.53098409  0.00495811  0.76431072     0.82500
N268        N  0.52019729  0.99331117  0.75320591    -0.78200
C269        C  0.52802604  0.98145901  0.73998432     0.82600
N270        N  0.54762866  0.98073894  0.73837368    -0.79900
C271        C  0.95029466  0.00187671  0.24341826     0.80100
N272        N  0.96068269  0.98785533  0.25258230    -0.78200
C273        C  0.98026017  0.98832953  0.25229038     0.82500
N274        N  0.98931539  0.00276983  0.24301549    -0.78200
C275        C  0.97932741  0.01674334  0.23390182     0.82600
N276        N  0.95974513  0.01640011  0.23411890    -0.79900
C277        C  0.26114251  0.29946152  0.99570792     0.80100
N278        N  0.24336469  0.29178077  0.99893233    -0.78200
C279        C  0.24110541  0.27232127  0.99947131     0.82500
N280        N  0.25648950  0.26088127  0.99679063    -0.78200
C281        C  0.27424102  0.26797560  0.99390753     0.82600
N282        N  0.27662675  0.28749053  0.99330951    -0.79900
C283        C  0.23588918  0.94853420  0.00008563     0.80100
N284        N  0.22097582  0.95890429  0.00767611    -0.78200
C285        C  0.22117259  0.97851902  0.00675711     0.82500
N286        N  0.23618554  0.98742837  0.99843079    -0.78200
C287        C  0.25114578  0.97758686  0.99106716     0.82600
N288        N  0.25103624  0.95795793  0.99182174    -0.79900
C289        C  0.29530056  0.99505664  0.23526449     0.80100
N290        N  0.28366307  0.00337396  0.22165015    -0.78200
C291        C  0.26413238  0.00255293  0.22344045     0.82500
N292        N  0.25645912  0.99352481  0.23881130    -0.78200
C293        C  0.26756452  0.98505974  0.25230205     0.82600
N294        N  0.28708801  0.98582977  0.25062671    -0.79900
C295        C  0.99051585  0.25192739  0.94648214     0.80100
N296        N  0.00565165  0.24456754  0.95668457    -0.78200
C297        C  0.00502288  0.24416897  0.97626196     0.82500
N298        N  0.98941819  0.25092714  0.98550814    -0.78200
C299        C  0.97431678  0.25822717  0.97575270     0.82600
N300        N  0.97478548  0.25879199  0.95612662    -0.79900
C301        C  0.99121398  0.25295357  0.30436175     0.80100
N302        N  0.97698207  0.26273974  0.29500580    -0.78200
C303        C  0.97660761  0.26320269  0.27547016     0.82500
N304        N  0.99047935  0.25422603  0.26536605    -0.78200
C305        C  0.00487540  0.24469021  0.27424126     0.82600
N306        N  0.00532981  0.24398411  0.29391150    -0.79900
O307        O  0.12570654  0.12132390  0.15484820    -0.88500
C308        C  0.12412691  0.09579279  0.10251887     0.87500
Mg309      Mg  0.10335703  0.14025962  0.16406392     1.58100
O310        O  0.15636031  0.13484183  0.10417218    -0.88200
O311        O  0.15655579  0.12407107  0.14868463    -0.75600
C312        C  0.08412849  0.19467273  0.08663585     0.92600
O313        O  0.08938366  0.10739454  0.13057444    -0.75400
O314        O  0.07565405  0.19056912  0.10238440    -0.82900
Mg315      Mg  0.11681460  0.09400728  0.14333975     1.58000
C316        C  0.15651620  0.17584273  0.06081244     0.92500
O317        O  0.14340286  0.07750288  0.15626950    -0.81100
H318        H  0.17887727  0.14793456  0.11635444    -0.06500
C319        C  0.10386979  0.14455586  0.08281582     0.87400
O320        O  0.12096439  0.16661148  0.15462274    -0.75700
O321        O  0.13196912  0.10111930  0.11759071    -0.88400
O322        O  0.15937935  0.15767034  0.06243768    -0.81200
C323        C  0.16969092  0.09418667  0.07388463     0.92600
C324        C  0.16066283  0.07384478  0.15106942     0.92500
Mg325      Mg  0.12828107  0.17747965  0.09798822     1.58000
O326        O  0.10163127  0.19026139  0.08400863    -0.81100
O327        O  0.15661870  0.16586437  0.11040249    -0.75400
O328        O  0.16823785  0.09205498  0.09203463    -0.81200
O329        O  0.09825102  0.08648252  0.16953364    -0.82900
O330        O  0.07604779  0.18125611  0.15009578    -0.81300
C331        C  0.16465574  0.14940130  0.11027140     0.86900
O332        O  0.11359113  0.17167731  0.12423454    -0.88400
O333        O  0.12032923  0.14970889  0.08720745    -0.88500
O334        O  0.08935213  0.14819210  0.09328600    -0.75600
Mg335      Mg  0.16160825  0.10885211  0.11979067     1.58000
O336        O  0.16486311  0.10980294  0.06545618    -0.82900
H337        H  0.14417774  0.13312968  0.17349973    -0.06700
O338        O  0.08992755  0.13844574  0.13659023    -0.88200
H339        H  0.06781273  0.12569765  0.12335714    -0.06500
H340        H  0.13103766  0.18911879  0.13905179    -0.06700
C341        C  0.08173539  0.12401550  0.13012985     0.86900
C342        C  0.14214554  0.12614037  0.15971443     0.87500
C343        C  0.12199662  0.17648942  0.13923360     0.87500
H344        H  0.10180972  0.13631024  0.06974447    -0.06600
O345        O  0.12572039  0.10517870  0.08692499    -0.75700
Mg346      Mg  0.08367444  0.16447192  0.12152754     1.58000
H347        H  0.11523059  0.08304618  0.10273336    -0.06700
C348        C  0.08491599  0.09679102  0.17681937     0.92500
O349        O  0.08111776  0.16110850  0.17467394    -0.82900
C350        C  0.07488414  0.17698174  0.16801259     0.92600
O351        O  0.16840735  0.08242364  0.13694888    -0.82900
Mg352      Mg  0.14267471  0.13158460  0.07655332     1.58200
O353        O  0.08479699  0.11507152  0.17507551    -0.81200
O354        O  0.14430383  0.18464667  0.07109730    -0.82900
O355        O  0.40977032  0.85383066  0.61891614    -0.88500
C356        C  0.35508783  0.83510071  0.61057826     0.87500
Mg357      Mg  0.41804536  0.86940135  0.64416742     1.58100
O358        O  0.36629480  0.87607267  0.58328209    -0.88200
O359        O  0.40843567  0.85964809  0.58784494    -0.75600
C360        C  0.34589406  0.93196167  0.65806459     0.92600
O361        O  0.37942094  0.83997393  0.64982551    -0.75400
O362        O  0.35943804  0.92464386  0.66812227    -0.82900
Mg363      Mg  0.39438233  0.82745211  0.62312025     1.58000
C364        C  0.33079664  0.92286989  0.58022853     0.92500
O365        O  0.40924969  0.81233011  0.59658314    -0.81100
H366        H  0.38330736  0.88907814  0.56418940    -0.06500
C367        C  0.33838233  0.88485108  0.63302722     0.87400
O368        O  0.41427257  0.89801090  0.62809774    -0.75700
O369        O  0.37168168  0.83898538  0.60552384    -0.88400
O370        O  0.33005725  0.90492910  0.57587842    -0.81200
C371        C  0.33382051  0.84126218  0.56058162     0.92600
C372        C  0.40577031  0.81082654  0.57851249     0.92500
Mg373      Mg  0.36141447  0.91673561  0.61438179     1.58000
O374        O  0.34540608  0.92954389  0.63995585    -0.81100
O375        O  0.37640657  0.90576014  0.58711991    -0.75400
O376        O  0.35094674  0.83657801  0.56506353    -0.81200
O377        O  0.41699082  0.81507844  0.64415487    -0.82900
O378        O  0.40543001  0.90950868  0.67283315    -0.81300
C379        C  0.37538316  0.89022783  0.57746871     0.86900
O380        O  0.38399467  0.90611550  0.63187506    -0.88400
O381        O  0.34584837  0.89033344  0.61780398    -0.88500
O382        O  0.34716694  0.88552221  0.64913406    -0.75600
Mg383      Mg  0.37900775  0.84889491  0.57742520     1.58000
O384        O  0.32671350  0.85744128  0.56578947    -0.82900
H385        H  0.43202591  0.86454181  0.60432317    -0.06700
O386        O  0.38894150  0.86994737  0.65354247    -0.88200
H387        H  0.37104724  0.85712603  0.67192002    -0.06500
H388        H  0.40284353  0.92310281  0.61846285    -0.06700
C389        C  0.37966656  0.85580525  0.65905678     0.86900
C390        C  0.41743256  0.85924953  0.60379728     0.87500
C391        C  0.40040050  0.90978332  0.62609663     0.87500
H392        H  0.32406332  0.87887570  0.63255093    -0.06600
O393        O  0.34110439  0.84656429  0.60759995    -0.75700
Mg394      Mg  0.37627710  0.89707519  0.66026006     1.58000
H395        H  0.35247524  0.82178609  0.61811273    -0.06700
C396        C  0.42317183  0.82325392  0.65944111     0.92500
O397        O  0.42832666  0.88711929  0.66962251    -0.82900
C398        C  0.42256374  0.90335947  0.67586348     0.92600
O399        O  0.39335421  0.82126772  0.57014254    -0.82900
Mg400      Mg  0.33681659  0.87562851  0.59202453     1.58200
O401        O  0.42314664  0.84151424  0.66140050    -0.81200
O402        O  0.33897157  0.92896222  0.59535496    -0.82900
O403        O  0.12683446  0.89025754  0.34326489    -0.88500
C404        C  0.12647330  0.92012378  0.39332381     0.87500
Mg405      Mg  0.10331735  0.87288683  0.33390034     1.58100
O406        O  0.15635010  0.87922718  0.39479960    -0.88200
O407        O  0.15764046  0.88755843  0.35006725    -0.75600
C408        C  0.07937083  0.82543642  0.41407691     0.92600
O409        O  0.09157444  0.90960240  0.36465026    -0.75400
O410        O  0.07093094  0.82927330  0.39815400    -0.82900
Mg411      Mg  0.12036532  0.91915421  0.35139993     1.58000
C412        C  0.15199151  0.83939340  0.43905749     0.92500
O413        O  0.14962843  0.92912541  0.33674349    -0.81100
H414        H  0.17703866  0.86369687  0.38228852    -0.06500
C415        C  0.10240451  0.87460842  0.41492908     0.87400
O416        O  0.11827327  0.84579544  0.34503894    -0.75700
O417        O  0.13409298  0.91335819  0.37873789    -0.88400
O418        O  0.15654520  0.85727114  0.43787290    -0.81200
C419        C  0.17200035  0.91980606  0.42417681     0.92600
C420        C  0.16661839  0.93309877  0.34278616     0.92500
Mg421      Mg  0.12419597  0.83930072  0.40153377     1.58000
O422        O  0.09705341  0.82913962  0.41653559    -0.81100
O423        O  0.15312549  0.84831392  0.38857293    -0.75400
O424        O  0.17030914  0.92209996  0.40599210    -0.81200
O425        O  0.10227151  0.92621952  0.32398900    -0.82900
O426        O  0.07201579  0.83579697  0.34941428    -0.81300
C427        C  0.16287784  0.86380279  0.38862963     0.86900
O428        O  0.10986539  0.84446494  0.37534444    -0.88400
O429        O  0.11848789  0.86795886  0.41117344    -0.88500
O430        O  0.08767632  0.87132158  0.40453011    -0.75600
Mg431      Mg  0.16316133  0.90441747  0.37830703     1.58000
O432        O  0.16622777  0.90455155  0.43263546    -0.82900
H433        H  0.14518159  0.87620211  0.32616722    -0.06700
O434        O  0.08899116  0.87816671  0.36060966    -0.88200
H435        H  0.06830387  0.89404838  0.37271294    -0.06500
H436        H  0.12517489  0.82363853  0.36273380    -0.06700
C437        C  0.08232087  0.89383749  0.36603876     0.86900
C438        C  0.14318655  0.88447317  0.33918235     0.87500
C439        C  0.11776310  0.83722045  0.36114738     0.87500
H440        H  0.10087876  0.88386581  0.42738971    -0.06600
O441        O  0.12758578  0.91172861  0.40957414    -0.75700
Mg442      Mg  0.08063612  0.85371881  0.37727932     1.58000
H443        H  0.11845139  0.93340072  0.39219219    -0.06700
C444        C  0.08820656  0.91626135  0.31751736     0.92500
O445        O  0.07981630  0.85340295  0.32362243    -0.82900
C446        C  0.07196231  0.83873502  0.33115616     0.92600
O447        O  0.17134976  0.93024814  0.36024234    -0.82900
Mg448      Mg  0.14228177  0.88442197  0.42185953     1.58200
O449        O  0.08719572  0.89828961  0.32075015    -0.81200
O450        O  0.13970514  0.83204968  0.42787838    -0.82900
C451        C  0.00938480  0.74622942  0.55717435     0.80100
N452        N  0.99835565  0.73309053  0.54751852    -0.78200
C453        C  0.99789477  0.73306559  0.52792191     0.82500
N454        N  0.00816692  0.74619901  0.51808394    -0.78200
C455        C  0.01905099  0.75937624  0.52728869     0.82600
N456        N  0.01974161  0.75947091  0.54693060    -0.79900
C457        C  0.24833672  0.05909886  0.50448708     0.80100
N458        N  0.26287984  0.05038738  0.51449751    -0.78200
C459        C  0.26400519  0.03080704  0.51512657     0.82500
N460        N  0.25073894  0.02011660  0.50576202    -0.78200
C461        C  0.23633105  0.02844123  0.49573052     0.82600
N462        N  0.23511552  0.04802912  0.49498118    -0.79900
C463        C  0.24387382  0.70101891  0.49636829     0.80100
N464        N  0.25864527  0.71262180  0.50246157    -0.78200
C465        C  0.25646020  0.73221171  0.50255106     0.82500
N466        N  0.23957929  0.73981122  0.49674886    -0.78200
C467        C  0.22501605  0.72873531  0.49039016     0.82600
N468        N  0.22706171  0.70921218  0.49015981    -0.79900
C469        C  0.99465739  0.74083077  0.20438092     0.80100
N470        N  0.98314127  0.72908244  0.21511426    -0.78200
C471        C  0.98392969  0.72988296  0.23471412     0.82500
N472        N  0.99627269  0.74211984  0.24335914    -0.78200
C473        C  0.00804069  0.75357121  0.23304041     0.82600
N474        N  0.00719296  0.75301503  0.21343010    -0.79900
C475        C  0.21047548  0.99874538  0.75218351     0.80100
N476        N  0.21992382  0.98914177  0.73784990    -0.78200
C477        C  0.23950098  0.98855106  0.73781669     0.82500
N478        N  0.24942656  0.99771963  0.75181388    -0.78200
C479        C  0.24024530  0.00733746  0.76598411     0.82600
N480        N  0.22073296  0.00789527  0.76620931    -0.79900
C481        C  0.75036092  0.20350966  0.00517026     0.80100
N482        N  0.75921561  0.21422090  0.01913642    -0.78200
C483        C  0.75778739  0.23377500  0.01869277     0.82500
N484        N  0.74789810  0.24228400  0.00438571    -0.78200
C485        C  0.73926289  0.23200989  0.99043896     0.82600
N486        N  0.74036227  0.21245663  0.99076062    -0.79900
C487        C  0.49314849  0.74649086  0.80339880     0.80100
N488        N  0.50761595  0.73709337  0.79399082    -0.78200
C489        C  0.50837176  0.73737620  0.77438929     0.82500
N490        N  0.49466364  0.74689387  0.76443288    -0.78200
C491        C  0.48041413  0.75643747  0.77345530     0.82600
N492        N  0.47965034  0.75643301  0.79305524    -0.79900
C493        C  0.50867434  0.75258162  0.44930666     0.80100
N494        N  0.52463005  0.74874314  0.46015540    -0.78200
C495        C  0.52363119  0.74957449  0.47972663     0.82500
N496        N  0.50676718  0.75408100  0.48816584    -0.78200
C497        C  0.49088339  0.75788860  0.47766092     0.82600
N498        N  0.49176573  0.75712730  0.45812560    -0.79900
C499        C  0.75756083  0.79838046  0.48906895     0.80100
N500        N  0.77349144  0.78792642  0.48400211    -0.78200
C501        C  0.77336435  0.76835403  0.48576339     0.82500
N502        N  0.75748805  0.75950789  0.49234050    -0.78200
C503        C  0.74169086  0.76945951  0.49738346     0.82600
N504        N  0.74168040  0.78901089  0.49587545    -0.79900
C505        C  0.45075098  0.50571680  0.74792541     0.80100
N506        N  0.46036152  0.51788439  0.73594046    -0.78200
C507        C  0.47988496  0.51788928  0.73581993     0.82500
N508        N  0.48963646  0.50599279  0.74770240    -0.78200
C509        C  0.48028343  0.49393693  0.75967452     0.82600
N510        N  0.46076240  0.49377510  0.75988436    -0.79900
C511        C  0.80203930  0.50005702  0.73965813     0.80100
N512        N  0.79205673  0.50546275  0.72349253    -0.78200
C513        C  0.77248846  0.50424683  0.72312569     0.82500
N514        N  0.76311170  0.49790430  0.73883177    -0.78200
C515        C  0.77251465  0.49300033  0.75513202     0.82600
N516        N  0.79210148  0.49398856  0.75554267    -0.79900
C517        C  0.73609177  0.43819764  0.49884525     0.80100
N518        N  0.72279690  0.45029580  0.50693397    -0.78200
C519        C  0.72533880  0.46977243  0.50593397     0.82500
N520        N  0.74112502  0.47680867  0.49727305    -0.78200
C521        C  0.75434332  0.46510834  0.48931177     0.82600
N522        N  0.75191870  0.44570244  0.49004545    -0.79900
C523        C  0.70263414  0.50236817  0.24988981     0.80100
N524        N  0.71290416  0.51004216  0.26492436    -0.78200
C525        C  0.73252320  0.50943570  0.26480622     0.82500
N526        N  0.74170295  0.50150595  0.24965492    -0.78200
C527        C  0.73186193  0.49387442  0.23473082     0.82600
N528        N  0.71233607  0.49416293  0.23487856    -0.79900
O529        O  0.09050318  0.37942157  0.64392156    -0.88500
C530        C  0.14367543  0.37808907  0.66794540     0.87500
Mg531      Mg  0.08010383  0.35678715  0.62576128     1.58100
O532        O  0.13876280  0.41086298  0.63054787    -0.88200
O533        O  0.09541732  0.41070365  0.64314517    -0.75600
C534        C  0.15254031  0.34034640  0.56548910     0.92600
O535        O  0.11537813  0.34300941  0.65867953    -0.75400
O536        O  0.13904897  0.33256413  0.57491399    -0.82900
Mg537      Mg  0.10300865  0.37102694  0.67080291     1.58000
C538        C  0.17836785  0.41723660  0.58757345     0.92500
O539        O  0.08921073  0.39684872  0.68520280    -0.81100
H540        H  0.12505452  0.43307151  0.61840479    -0.06500
C541        C  0.16308992  0.35945835  0.61705531     0.87400
O542        O  0.08919754  0.37431552  0.59922480    -0.75700
O543        O  0.12835982  0.38616758  0.66373320    -0.88400
O544        O  0.17715975  0.41666079  0.60587746    -0.81200
C545        C  0.17128808  0.42463289  0.66861084     0.92600
C546        C  0.09249127  0.41388858  0.69089510     0.92500
Mg547      Mg  0.14491801  0.38458815  0.58556959     1.58000
O548        O  0.15770202  0.35783392  0.56852421    -0.81100
O549        O  0.13213971  0.41183059  0.59963492    -0.75400
O550        O  0.15367461  0.42275325  0.67337296    -0.81200
O551        O  0.07723306  0.35454411  0.67886249    -0.82900
O552        O  0.09522213  0.33129674  0.58641634    -0.81300
C553        C  0.13189615  0.41924005  0.61638948     0.86900
O554        O  0.11978059  0.36878074  0.59377736    -0.88400
O555        O  0.15760405  0.37576722  0.61239890    -0.88500
O556        O  0.15228389  0.34478952  0.61575188    -0.75600
Mg557      Mg  0.12474814  0.41612883  0.65771459     1.58000
O558        O  0.17739068  0.42035277  0.65192390    -0.82900
H559        H  0.07116508  0.39786586  0.63324493    -0.06700
O560        O  0.10824367  0.34410949  0.62801699    -0.88200
H561        H  0.12079408  0.32117260  0.64006298    -0.06500
H562        H  0.10388334  0.38573978  0.57679907    -0.06700
C563        C  0.11475404  0.33537339  0.64209399     0.86900
C564        C  0.08501026  0.39595232  0.63998737     0.87500
C565        C  0.10436397  0.37647493  0.58931869     0.87500
H566        H  0.17723298  0.35780038  0.62335923    -0.06600
O567        O  0.15863671  0.37977095  0.65761770    -0.75700
Mg568      Mg  0.12302742  0.33913526  0.60177949     1.58000
H569        H  0.14416683  0.36883643  0.68040260    -0.06700
C570        C  0.06694489  0.34213387  0.67038349     0.92500
O571        O  0.06887809  0.33411785  0.60426028    -0.82900
C572        C  0.07723333  0.32916890  0.58868347     0.92600
O573        O  0.10764511  0.42275722  0.68565210    -0.82900
Mg574      Mg  0.16672917  0.39802857  0.63125614     1.58200
O575        O  0.06773655  0.33938263  0.65215591    -0.81200
O576        O  0.17038374  0.40429577  0.57716428    -0.82900
O577        O  0.65184567  0.10989050  0.36764373    -0.88500
C578        C  0.60482780  0.07623794  0.35870217     0.87500
Mg579      Mg  0.65859572  0.12414632  0.39426094     1.58100
O580        O  0.60349414  0.12128423  0.33704553    -0.88200
O581        O  0.64779611  0.11663887  0.33692970    -0.75600
C582        C  0.57542559  0.16332640  0.42049490     0.92600
O583        O  0.62894825  0.08374792  0.39745344    -0.75400
O584        O  0.59159480  0.15762797  0.42677533    -0.82900
Mg585      Mg  0.64470639  0.07998438  0.36878944     1.58000
C586        C  0.55705403  0.15614921  0.33926873     0.92500
O587        O  0.66217403  0.07458004  0.34122324    -0.81100
H588        H  0.61513926  0.14125591  0.31998532    -0.06500
C589        C  0.57691396  0.11722673  0.38939401     0.87400
O590        O  0.64504123  0.15200037  0.38240594    -0.75700
O591        O  0.61910948  0.08521684  0.35314188    -0.88400
O592        O  0.56330623  0.13956436  0.33490046    -0.81200
C593        C  0.57719185  0.08388050  0.31168872     0.92600
C594        C  0.66040002  0.07300764  0.32302662     0.92500
Mg595      Mg  0.58762016  0.15626987  0.37352013     1.58000
O596        O  0.57095685  0.16228452  0.40260312    -0.81100
O597        O  0.60353473  0.15215318  0.34447072    -0.75400
O598        O  0.59537221  0.08074308  0.31300181    -0.81200
O599        O  0.67036440  0.07266620  0.38641696    -0.82900
O600        O  0.63692333  0.15427907  0.42730670    -0.81300
C601        C  0.60760617  0.13822451  0.33319079     0.86900
O602        O  0.61406405  0.15058553  0.38821378    -0.88400
O603        O  0.58201228  0.12605993  0.37481128    -0.88500
O604        O  0.58630938  0.11817919  0.40509162    -0.75600
Mg605      Mg  0.62188810  0.09899361  0.32588793     1.58000
O606        O  0.56929848  0.09798618  0.32013218    -0.82900
H607        H  0.66910646  0.12791484  0.35344409    -0.06700
O608        O  0.63137826  0.11441487  0.40500380    -0.88200
H609        H  0.61948300  0.09508794  0.42260532    -0.06500
H610        H  0.62634985  0.17353729  0.37604357    -0.06700
C611        C  0.62664351  0.09771840  0.40906659     0.86900
C612        C  0.65683689  0.11838857  0.35280515     0.87500
C613        C  0.62829942  0.15935544  0.38219324     0.87500
H614        H  0.56444538  0.10801159  0.38860525    -0.06600
O615        O  0.58822632  0.08385452  0.35898009    -0.75700
Mg616      Mg  0.61232318  0.13597751  0.41520145     1.58000
H617        H  0.60663919  0.06177571  0.36412095    -0.06700
C618        C  0.67795337  0.07962795  0.40149846     0.92500
O619        O  0.66580883  0.14211766  0.42127042    -0.82900
C620        C  0.65509905  0.15477985  0.42920025     0.92600
O621        O  0.64462797  0.07720936  0.31445756    -0.82900
Mg622      Mg  0.57638435  0.11259964  0.34775478     1.58200
O623        O  0.67441128  0.09691178  0.40687227    -0.81200
O624        O  0.56044564  0.16338011  0.35580323    -0.82900
C625        C  0.49706774  0.24211028  0.55821692     0.80100
N626        N  0.50629396  0.22810520  0.54783950    -0.78200
C627        C  0.50532065  0.22816155  0.52821829     0.82500
N628        N  0.49565901  0.24232583  0.51914949    -0.78200
C629        C  0.48672886  0.25637242  0.52908631     0.82600
N630        N  0.48722843  0.25622103  0.54865331    -0.79900
O631        O  0.38266257  0.34519059  0.39207245    -0.88500
C632        C  0.37366891  0.39681713  0.41740305     0.87500
Mg633      Mg  0.40946217  0.33814946  0.37832243     1.58100
O634        O  0.34879385  0.38896280  0.37487601    -0.88200
O635        O  0.35155990  0.34584780  0.38704380    -0.75600
C636        C  0.42583492  0.41175436  0.31992897     0.92600
O637        O  0.41199435  0.37311648  0.41310243    -0.75400
O638        O  0.43393668  0.39977469  0.33111865    -0.82900
Mg639      Mg  0.38418886  0.35658043  0.42040779     1.58000
C640        C  0.34436433  0.42738875  0.33194671     0.92500
O641        O  0.35747417  0.33873155  0.42924896    -0.81100
H642        H  0.33169120  0.37173479  0.35946920    -0.06500
C643        C  0.39851239  0.41984109  0.36873489     0.87400
O644        O  0.39577484  0.34468181  0.34885862    -0.75700
O645        O  0.36761267  0.38090626  0.41207707    -0.88400
O646        O  0.34273371  0.42594505  0.35010331    -0.81200
C647        C  0.32326310  0.41954438  0.40840154     0.92600
C648        C  0.33956880  0.34095881  0.43230390     0.92500
Mg649      Mg  0.38081492  0.39892394  0.33419281     1.58000
O650        O  0.40765416  0.41482172  0.32049312    -0.81100
O651        O  0.35413220  0.38242343  0.34436312    -0.75400
O652        O  0.32559772  0.40199061  0.41358069    -0.81200
O653        O  0.40228404  0.33217786  0.43041692    -0.82900
O654        O  0.43874700  0.35635382  0.34325462    -0.81300
C655        C  0.34426959  0.38085879  0.35965317     0.86900
O656        O  0.39834691  0.37587633  0.34437150    -0.88400
O657        O  0.38405139  0.41178542  0.36225875    -0.88500
O658        O  0.41464153  0.41137146  0.36954740    -0.75600
Mg659      Mg  0.34005282  0.37420419  0.40039974     1.58000
O660        O  0.33240368  0.42666607  0.39434271    -0.82900
H661        H  0.36884266  0.32382354  0.37861428    -0.06700
O662        O  0.41763701  0.36764090  0.38245336    -0.88200
H663        H  0.43537359  0.38319953  0.39894448    -0.06500
H664        H  0.38728159  0.35829097  0.32446366    -0.06700
C665        C  0.42234023  0.37482740  0.39810669     0.86900
C666        C  0.36786846  0.33764535  0.38568827     0.87500
C667        C  0.39374536  0.35966681  0.33852530     0.87500
H668        H  0.39716512  0.43415142  0.37472933    -0.06600
O669        O  0.37292438  0.41163339  0.40666921    -0.75700
Mg670      Mg  0.42547971  0.38296936  0.35706018     1.58000
H671        H  0.38058544  0.39795497  0.43132812    -0.06700
C672        C  0.41877374  0.32703241  0.42470310     0.92500
O673        O  0.43675440  0.33010396  0.36141700    -0.82900
C674        C  0.44289002  0.33882456  0.34649363     0.92600
O675        O  0.33109023  0.35631229  0.42682217    -0.82900
Mg676      Mg  0.35845682  0.41813313  0.37765584     1.58200
O677        O  0.42434162  0.32955507  0.40736823    -0.81200
O678        O  0.35957425  0.42200795  0.32319618    -0.82900
C679        C  0.55585397  0.50280426  0.24219287     0.80100
N680        N  0.54567446  0.48855234  0.25112853    -0.78200
C681        C  0.52614899  0.48810260  0.24986257     0.82500
N682        N  0.51687996  0.50200949  0.23997474    -0.78200
C683        C  0.52653263  0.51630557  0.23116618     0.82600
N684        N  0.54611305  0.51675241  0.23215441    -0.79900
C685        C  0.49058642  0.75332609  0.94983776     0.80100
N686        N  0.47535273  0.74645148  0.96019407    -0.78200
C687        C  0.47524226  0.74808520  0.97975374     0.82500
N688        N  0.49035110  0.75618605  0.98878260    -0.78200
C689        C  0.50551032  0.76297705  0.97892568     0.82600
N690        N  0.50568629  0.76166926  0.95936090    -0.79900
O691        O  0.36705439  0.66299031  0.11583657    -0.88500
C692        C  0.36508218  0.61216178  0.08651159     0.87500
Mg693      Mg  0.39102831  0.67303088  0.13213669     1.58100
O694        O  0.33743825  0.61378640  0.12794324    -0.88200
O695        O  0.33617582  0.65727466  0.11976255    -0.75600
C696        C  0.41585100  0.59459436  0.18053386     0.92600
O697        O  0.40140018  0.63981766  0.09556538    -0.75400
O698        O  0.42044619  0.61188601  0.17705030    -0.82900
Mg699      Mg  0.37242605  0.65306222  0.08718475     1.58000
C700        C  0.33622180  0.57270625  0.16823959     0.92500
O701        O  0.34518475  0.66813087  0.07735684    -0.81100
H702        H  0.31757391  0.62703926  0.14394367    -0.06500
C703        C  0.39047388  0.59022295  0.13279932     0.87400
O704        O  0.37644449  0.66125338  0.15936020    -0.75700
O705        O  0.35792719  0.62700842  0.09332232    -0.88400
O706        O  0.33417359  0.57531162  0.15021317    -0.81200
C707        C  0.31932197  0.58356532  0.08916917     0.92600
C708        C  0.32740378  0.66575879  0.07411030     0.92500
Mg709      Mg  0.36955343  0.60398223  0.16816439     1.58000
O710        O  0.39872719  0.58851164  0.17747943    -0.81100
O711        O  0.34077259  0.61805021  0.15925246    -0.75400
O712        O  0.32067161  0.60158249  0.08531781    -0.81200
O713        O  0.38829151  0.67953808  0.07958987    -0.82900
O714        O  0.41931785  0.65612934  0.16855572    -0.81300
C715        C  0.33129843  0.61976685  0.14360782     0.86900
O716        O  0.38315895  0.63044579  0.16098989    -0.88400
O717        O  0.37454594  0.59472455  0.13938443    -0.88500
O718        O  0.40522513  0.60088391  0.13490719    -0.75600
Mg719      Mg  0.32892057  0.62968510  0.10295140     1.58000
O720        O  0.32481285  0.57669432  0.10522540    -0.82900
H721        H  0.35006528  0.68014278  0.13143314    -0.06700
O722        O  0.40444329  0.64563895  0.12648807    -0.88200
H723        H  0.42533087  0.63341597  0.11100927    -0.06500
H724        H  0.36759372  0.64387948  0.18105325    -0.06700
C725        C  0.41111410  0.63970734  0.11107929     0.86900
C726        C  0.35116439  0.66738815  0.12254582     0.87500
C727        C  0.37556295  0.64503783  0.16776338     0.87500
H728        H  0.39178912  0.57705648  0.12461764    -0.06600
O729        O  0.36452834  0.59616854  0.09540426    -0.75700
Mg730      Mg  0.41172339  0.62915950  0.15128267     1.58000
H731        H  0.37247898  0.61293288  0.07289583    -0.06700
C732        C  0.40096933  0.69000829  0.08742937     0.92500
O733        O  0.41524351  0.68337155  0.15208191    -0.82900
C734        C  0.42095981  0.67430173  0.16701007     0.92600
O735        O  0.31905325  0.64990967  0.07821170    -0.82900
Mg736      Mg  0.34988910  0.58624280  0.12332877     1.58200
O737        O  0.40522985  0.68834037  0.10530665    -0.81200
O738        O  0.35159389  0.57785548  0.17682916    -0.82900
C739        C  0.25061142  0.55396733  0.49882893     0.80100
N740        N  0.24243169  0.54482861  0.51422430    -0.78200
C741        C  0.24290544  0.52521153  0.51540285     0.82500
N742        N  0.25123066  0.51497300  0.50117839    -0.78200
C743        C  0.25888550  0.52361159  0.48556540     0.82600
N744        N  0.25864436  0.54324269  0.48438293    -0.79900
O745        O  0.59274366  0.87334082  0.13782246    -0.88500
C746        C  0.64587458  0.88417307  0.15970405     0.87500
Mg747      Mg  0.58550199  0.84778493  0.12211836     1.58100
O748        O  0.63324939  0.91213199  0.12010028    -0.88200
O749        O  0.59201944  0.90495356  0.13454020    -0.75600
C750        C  0.65633594  0.84006966  0.06206730     0.92600
O751        O  0.62484232  0.84346078  0.15285174    -0.75400
O752        O  0.63955032  0.83452299  0.06577013    -0.82900
Mg753      Mg  0.60775132  0.86928033  0.16448216     1.58000
C754        C  0.66923540  0.92167706  0.07566909     0.92500
O755        O  0.58988578  0.89314687  0.17730214    -0.81100
H756        H  0.61542110  0.93071870  0.10719460    -0.06500
C757        C  0.66496795  0.86465949  0.10909435     0.87400
O758        O  0.58895224  0.86530387  0.09394010    -0.75700
O759        O  0.62921055  0.88852024  0.15525331    -0.88400
O760        O  0.66756068  0.92297864  0.09380026    -0.81200
C761        C  0.66538652  0.93400852  0.15494490     0.92600
C762        C  0.58886038  0.91105514  0.18059242     0.92500
Mg763      Mg  0.64290262  0.88399301  0.07756763     1.58000
O764        O  0.66142130  0.85746193  0.06554344    -0.81100
O765        O  0.62584413  0.91005031  0.08931431    -0.75400
O766        O  0.64896873  0.92911967  0.16175074    -0.81200
O767        O  0.58600591  0.84862506  0.17521276    -0.82900
O768        O  0.60026376  0.82588830  0.08198100    -0.81300
C769        C  0.62458649  0.91822290  0.10571288     0.86900
O770        O  0.61983751  0.86608186  0.08798852    -0.88400
O771        O  0.65663011  0.87975481  0.10459568    -0.88500
O772        O  0.65696085  0.84829770  0.10719765    -0.75600
Mg773      Mg  0.62012791  0.91686366  0.14754608     1.58000
O774        O  0.66948417  0.93146550  0.13738745    -0.82900
H775        H  0.57041902  0.88724079  0.12609331    -0.06700
O776        O  0.61542317  0.84071614  0.12282349    -0.88200
H777        H  0.63362635  0.82204442  0.13502578    -0.06500
H778        H  0.60052773  0.87855235  0.07065246    -0.06700
C779        C  0.62476841  0.83469756  0.13677017     0.86900
C780        C  0.58446223  0.88833850  0.13270799     0.87500
C781        C  0.60313011  0.87031904  0.08354845     0.87500
H782        H  0.67930442  0.86540785  0.11502688    -0.06600
O783        O  0.65996494  0.88808136  0.14881755    -0.75700
Mg784      Mg  0.62768395  0.83783018  0.09511476     1.58000
H785        H  0.64844984  0.87641880  0.17291368    -0.06700
C786        C  0.57925027  0.83324293  0.16812805     0.92500
O787        O  0.57742094  0.82151818  0.10343148    -0.82900
C788        C  0.58414161  0.81883002  0.08660244     0.92600
O789        O  0.60222235  0.92235960  0.17506901    -0.82900
Mg790      Mg  0.66274989  0.90501392  0.12055013     1.58200
O791        O  0.57955096  0.82980073  0.15004499    -0.81200
O792        O  0.66515974  0.90613748  0.06668333    -0.82900
C793        C  0.75206682  0.70526318  0.99815696     0.80100
N794        N  0.76440267  0.71572139  0.98708314    -0.78200
C795        C  0.76370050  0.73528557  0.98759658     0.82500
N796        N  0.75086202  0.74418542  0.99901806    -0.78200
C797        C  0.73860836  0.73407968  0.01005780     0.82600
N798        N  0.73906081  0.71448596  0.00962703    -0.79900
O799        O  0.87473620  0.15094150  0.61480377    -0.88500
C800        C  0.86759318  0.10149858  0.58413188     0.87500
Mg801      Mg  0.90106929  0.15810833  0.62935802     1.58100
O802        O  0.84448928  0.10274914  0.62840930    -0.88200
O803        O  0.84400022  0.14690795  0.62101625    -0.75600
C804        C  0.92537602  0.07681225  0.67405341     0.92600
O805        O  0.90568052  0.12669653  0.59061570    -0.75400
O806        O  0.93168731  0.09265489  0.66758218    -0.82900
Mg807      Mg  0.87688574  0.14188329  0.58536757     1.58000
C808        C  0.84529257  0.05658387  0.66519264     0.92500
O809        O  0.84924769  0.15864263  0.57795893    -0.81100
H810        H  0.82600970  0.11498554  0.64671556    -0.06500
C811        C  0.89613043  0.07538671  0.62728402     0.87400
O812        O  0.88850105  0.14592751  0.65761315    -0.75700
O813        O  0.86176872  0.11639823  0.59198069    -0.88400
O814        O  0.84153554  0.06239382  0.64830682    -0.81200
C815        C  0.82123654  0.07449501  0.59137222     0.92600
C816        C  0.83121114  0.15630591  0.57591202     0.92500
Mg817      Mg  0.87875016  0.08841890  0.66534894     1.58000
O818        O  0.90757928  0.07225972  0.67306743    -0.81100
O819        O  0.84983658  0.10397779  0.65958782    -0.75400
O820        O  0.82325979  0.09229470  0.58689885    -0.81200
O821        O  0.89385354  0.16754751  0.57726534    -0.82900
O822        O  0.93145151  0.13775307  0.66239493    -0.81300
C823        C  0.83946072  0.10746405  0.64484843     0.86900
O824        O  0.89336970  0.11464286  0.65812721    -0.88400
O825        O  0.88133515  0.08076967  0.63555911    -0.88500
O826        O  0.91154720  0.08517096  0.62783628    -0.75600
Mg827      Mg  0.83414320  0.11973309  0.60451042     1.58000
O828        O  0.82732220  0.06794970  0.60721765    -0.82900
H829        H  0.85986214  0.16917278  0.63136476    -0.06700
O830        O  0.91148166  0.13017303  0.62147266    -0.88200
H831        H  0.93028041  0.11783643  0.60358303    -0.06500
H832        H  0.88086766  0.12868499  0.67987749    -0.06700
C833        C  0.91653824  0.12490315  0.60523463     0.86900
C834        C  0.85964948  0.15628508  0.62260208     0.87500
C835        C  0.88745654  0.12958875  0.66586039     0.87500
H836        H  0.89573310  0.06235221  0.61879070    -0.06600
O837        O  0.86714125  0.08530377  0.59262969    -0.75700
Mg838      Mg  0.92069333  0.11221549  0.64458698     1.58000
H839        H  0.87370664  0.10236463  0.56990249    -0.06700
C840        C  0.90818499  0.17631655  0.58432618     0.92500
O841        O  0.92825103  0.16552934  0.64699269    -0.82900
C842        C  0.93459227  0.15574431  0.66122105     0.92600
O843        O  0.82301359  0.14063667  0.58093707    -0.82900
Mg844      Mg  0.85487422  0.07495187  0.62153318     1.58200
O845        O  0.91376625  0.17335062  0.60168220    -0.81200
O846        O  0.86089306  0.06140308  0.67359696    -0.82900
C847        C  0.70595712  0.98619968  0.74648681     0.80100
N848        N  0.71532383  0.99209439  0.73016950    -0.78200
C849        C  0.73493568  0.99204307  0.72964033     0.82500
N850        N  0.74485933  0.98635011  0.74528752    -0.78200
C851        C  0.73605031  0.98054983  0.76145268     0.82600
N852        N  0.71646321  0.98051653  0.76223434    -0.79900
O853        O  0.88129025  0.84678437  0.89006853    -0.88500
C854        C  0.87683047  0.89695250  0.91987906     0.87500
Mg855      Mg  0.90709145  0.83840023  0.87536266     1.58100
O856        O  0.85111763  0.89606309  0.87680604    -0.88200
O857        O  0.85061609  0.85191845  0.88414869    -0.75600
C858        C  0.93083476  0.91740990  0.82822267     0.92600
O859        O  0.91367092  0.87012148  0.91261585    -0.75400
O860        O  0.93631297  0.90063010  0.83277599    -0.82900
Mg861      Mg  0.88442244  0.85609027  0.91902868     1.58000
C862        C  0.85120348  0.93987315  0.83858297     0.92500
O863        O  0.85676442  0.84106886  0.92741706    -0.81100
H864        H  0.83134062  0.88417074  0.85959538    -0.06500
C865        C  0.90353317  0.92111430  0.87494225     0.87400
O866        O  0.89306511  0.84946895  0.84718790    -0.75700
O867        O  0.87003193  0.88222030  0.91250433    -0.88400
O868        O  0.84802693  0.93532607  0.85601543    -0.81200
C869        C  0.82996481  0.92462569  0.91524359     0.92600
C870        C  0.83885331  0.84366979  0.92959175     0.92500
Mg871      Mg  0.88428244  0.90755140  0.83854563     1.58000
O872        O  0.91341404  0.92292220  0.83041047    -0.81100
O873        O  0.85513544  0.89333496  0.84550515    -0.75400
O874        O  0.83121709  0.90646763  0.91814842    -0.81200
O875        O  0.89954161  0.82895697  0.92672132    -0.82900
O876        O  0.93638563  0.85666857  0.84069592    -0.81300
C877        C  0.84519689  0.89106139  0.86071037     0.86900
O878        O  0.89831701  0.88071689  0.84572060    -0.88400
O879        O  0.88809610  0.91591502  0.86776318    -0.88500
O880        O  0.91869001  0.91096739  0.87359393    -0.75600
Mg881      Mg  0.84168492  0.87934256  0.90070116     1.58000
O882        O  0.83734061  0.93260821  0.90057810    -0.82900
H883        H  0.86554721  0.82906665  0.87372814    -0.06700
O884        O  0.91803102  0.86641109  0.88159046    -0.88200
H885        H  0.93778853  0.87855904  0.89863479    -0.06500
H886        H  0.88411185  0.86645397  0.82513218    -0.06700
C887        C  0.92386647  0.87178438  0.89755447     0.86900
C888        C  0.86590647  0.84196801  0.88245482     0.87500
C889        C  0.89162409  0.86570817  0.83872860     0.87500
H890        H  0.90401776  0.93439257  0.88304582    -0.06600
O891        O  0.87662937  0.91306788  0.91122139    -0.75700
Mg892      Mg  0.92649669  0.88302298  0.85753676     1.58000
H893        H  0.88371629  0.89594618  0.93380262    -0.06700
C894        C  0.91598107  0.82346522  0.92123126     0.92500
O895        O  0.93298566  0.82910292  0.85642352    -0.82900
C896        C  0.93889411  0.83858369  0.84183048     0.92600
O897        O  0.83073970  0.85927779  0.92438820    -0.82900
Mg898      Mg  0.86289709  0.92357192  0.88303692     1.58200
O899        O  0.92191045  0.82642263  0.90399831    -0.81200
O900        O  0.86690190  0.93488603  0.83052976    -0.82900
O901        O  0.08822452  0.61551323  0.86427770    -0.88500
C902        C  0.13871757  0.61718701  0.83488597     0.87500
Mg903      Mg  0.07819134  0.63815855  0.88272925     1.58100
O904        O  0.13706180  0.58601226  0.87405889    -0.88200
O905        O  0.09321023  0.58429032  0.86430003    -0.75600
C906        C  0.15663103  0.66006479  0.93337131     0.92600
O907        O  0.11072591  0.65216135  0.84744718    -0.75400
O908        O  0.13983878  0.66599729  0.92926648    -0.82900
Mg909      Mg  0.09817396  0.62380059  0.83639017     1.58000
C910        C  0.17982607  0.58204616  0.91274536     0.92500
O911        O  0.08413626  0.59773416  0.82297591    -0.81100
H912        H  0.12378639  0.56500049  0.88846959    -0.06500
C913        C  0.16028979  0.63883752  0.88357220     0.87400
O914        O  0.09007530  0.62183922  0.90905066    -0.75700
O915        O  0.12419439  0.60916433  0.84118918    -0.88400
O916        O  0.17634070  0.58192751  0.89484744    -0.81200
C917        C  0.16763968  0.57082062  0.83494126     0.92600
C918        C  0.08754105  0.58087971  0.81683785     0.92500
Mg919      Mg  0.14726754  0.61463204  0.91718999     1.58000
O920        O  0.16221499  0.64289485  0.92938027    -0.81100
O921        O  0.13316577  0.58676618  0.90558651    -0.75400
O922        O  0.14977136  0.57212135  0.83080385    -0.81200
O923        O  0.07154620  0.63945346  0.83011647    -0.82900
O924        O  0.09459172  0.66576334  0.92108899    -0.81300
C925        C  0.13116826  0.57865995  0.88921077     0.86900
O926        O  0.12059234  0.62918200  0.91203607    -0.88400
O927        O  0.15568563  0.62243673  0.88873620    -0.88500
O928        O  0.14963482  0.65337332  0.88672684    -0.75600
Mg929      Mg  0.12163635  0.57926660  0.84803353     1.58000
O930        O  0.17440358  0.57654774  0.85087998    -0.82900
H931        H  0.06966435  0.59697189  0.87593981    -0.06700
O932        O  0.10520673  0.65236689  0.87848883    -0.88200
H933        H  0.11676744  0.67483117  0.86483120    -0.06500
H934        H  0.10701930  0.61225178  0.93084935    -0.06700
C935        C  0.11080526  0.66050473  0.86371053     0.86900
C936        C  0.08303357  0.59897121  0.86836753     0.87500
C937        C  0.10602501  0.62094018  0.91796743     0.87500
H938        H  0.17346672  0.64077308  0.87563702    -0.06600
O939        O  0.15460667  0.61653203  0.84386277    -0.75700
Mg940      Mg  0.12168325  0.65851838  0.90356740     1.58000
H941        H  0.13767979  0.62552211  0.82184587    -0.06700
C942        C  0.06124361  0.65148664  0.83902446     0.92500
O943        O  0.06773730  0.66094041  0.90406171    -0.82900
C944        C  0.07644819  0.66713129  0.91900064     0.92600
O945        O  0.10301780  0.57206211  0.82132687    -0.82900
Mg946      Mg  0.16439499  0.59964067  0.87043417     1.58200
O947        O  0.06301713  0.65444592  0.85712984    -0.81200
O948        O  0.17419083  0.59591009  0.92344153    -0.82900
C949        C  0.00176257  0.74565610  0.70361784     0.80100
N950        N  0.99423421  0.76128539  0.71296769    -0.78200
C951        C  0.99261196  0.76109766  0.73252049     0.82500
N952        N  0.99829855  0.74540491  0.74245331    -0.78200
C953        C  0.00560706  0.72978491  0.73348090     0.82600
N954        N  0.00741454  0.72988205  0.71395536    -0.79900
C955        C  0.94910830  0.49877591  0.74526805     0.80100
N956        N  0.95905197  0.51492381  0.75069264    -0.78200
C957        C  0.97858183  0.51443166  0.75201246     0.82500
N958        N  0.98791517  0.49789118  0.74823303    -0.78200
C959        C  0.97860889  0.48168471  0.74314329     0.82600
N960        N  0.95904093  0.48207640  0.74148507    -0.79900
C961        C  0.30571760  0.50270565  0.74963578     0.80100
N962        N  0.29679293  0.48846139  0.73943161    -0.78200
C963        C  0.27732396  0.48710595  0.73977603     0.82500
N964        N  0.26700334  0.49981135  0.75009977    -0.78200
C965        C  0.27559495  0.51394725  0.76018554     0.82600
N966        N  0.29506365  0.51547421  0.76009357    -0.79900
C967        C  0.75053235  0.94477201  0.49234268     0.80100
N968        N  0.76022783  0.95337550  0.50715443    -0.78200
C969        C  0.76045807  0.97291085  0.50869833     0.82500
N970        N  0.75118478  0.98371686  0.49544914    -0.78200
C971        C  0.74153575  0.97552896  0.48066788     0.82600
N972        N  0.74121600  0.95594316  0.47902881    -0.79900
C973        C  0.98978456  0.25940360  0.45069830     0.80100
N974        N  0.00396220  0.26982077  0.45948850    -0.78200
C975        C  0.00489257  0.27048787  0.47904686     0.82500
N976        N  0.99190827  0.26081795  0.48959760    -0.78200
C977        C  0.97766231  0.25064100  0.48126417     0.82600
N978        N  0.97657110  0.24984439  0.46165843    -0.79900
C979        C  0.99612828  0.24616799  0.80004166     0.80100
N980        N  0.00211832  0.26198097  0.79000601    -0.78200
C981        C  0.00329441  0.26134689  0.77046994     0.82500
N982        N  0.99867311  0.24494329  0.76122173    -0.78200
C983        C  0.99295456  0.22901763  0.77067393     0.82600
N984        N  0.99153417  0.22964899  0.79025055    -0.79900
C985        C  0.50384615  0.74977123  0.30373768     0.80100
N986        N  0.48968054  0.73934073  0.29499493    -0.78200
C987        C  0.48822700  0.73926439  0.27547664     0.82500
N988        N  0.50085470  0.74936691  0.26485425    -0.78200
C989        C  0.51497967  0.75964518  0.27326722     0.82600
N990        N  0.51652674  0.75995799  0.29279292    -0.79900
C991        C  0.80342683  0.00127382  0.24509836     0.80100
N992        N  0.79348402  0.01321469  0.25725391    -0.78200
C993        C  0.77387315  0.01339282  0.25693543     0.82500
N994        N  0.76438884  0.00176353  0.24462153    -0.78200
C995        C  0.77385837  0.98993444  0.23252230     0.82600
N996        N  0.79345488  0.98969138  0.23261994    -0.79900
C997        C  0.23885779  0.80190356  0.00191646     0.80100
N998        N  0.25148028  0.79345559  0.01447550    -0.78200
C999        C  0.25285715  0.77390750  0.01528736     0.82500
N1000       N  0.24192567  0.76303846  0.00355926    -0.78200
C1001       C  0.22948587  0.77098713  0.99100529     0.82600
N1002       N  0.22774503  0.79056897  0.99016975    -0.79900
C1003       C  0.74000609  0.29212278  0.50398509     0.80100
N1004       N  0.72710358  0.28147246  0.49368048    -0.78200
C1005       C  0.72805124  0.26190450  0.49394322     0.82500
N1006       N  0.74170151  0.25305084  0.50459333    -0.78200
C1007       C  0.75457898  0.26331619  0.51495576     0.82600
N1008       N  0.75379291  0.28296126  0.51469648    -0.79900
C1009       C  0.20107660  0.49780301  0.25503178     0.80100
N1010       N  0.21166665  0.48592505  0.26657238    -0.78200
C1011       C  0.23116331  0.48679909  0.26612596     0.82500
N1012       N  0.23993840  0.49930559  0.25423263    -0.78200
C1013       C  0.22967045  0.51110755  0.24274618     0.82600
N1014       N  0.21014459  0.51040497  0.24302787    -0.79900
C1015       C  0.26103111  0.44593923  0.99261225     0.80100
N1016       N  0.27192554  0.45730664  0.00452859    -0.78200
C1017       C  0.26983031  0.47687630  0.00405126     0.82500
N1018       N  0.25688418  0.48477613  0.99194075    -0.78200
C1019       C  0.24614236  0.47384686  0.98006990     0.82600
N1020       N  0.24816937  0.45436161  0.98030972    -0.79900
C1021       C  0.44240710  0.99518269  0.23402919     0.80100
N1022       N  0.45268739  0.00837583  0.24467150    -0.78200
C1023       C  0.47231747  0.00702756  0.24570921     0.82500
N1024       N  0.48126517  0.99274274  0.23608910    -0.78200
C1025       C  0.47145453  0.97958586  0.22578222     0.82600
N1026       N  0.45196309  0.98068701  0.22472696    -0.79900
C1027       C  0.50459236  0.25625197  0.20357178     0.80100
N1028       N  0.50101361  0.27183031  0.21518609    -0.78200
C1029       C  0.50115795  0.26980587  0.23473365     0.82500
N1030       N  0.50455846  0.25226706  0.24225693    -0.78200
C1031       C  0.50850779  0.23686182  0.23123142     0.82600
N1032       N  0.50859871  0.23874832  0.21173015    -0.79900
C1033       C  0.24206120  0.20554666  0.49611888     0.80100
N1034       N  0.25764655  0.21545536  0.48932128    -0.78200
C1035       C  0.25706231  0.23507547  0.48804942     0.82500
N1036       N  0.24101325  0.24446060  0.49357353    -0.78200
C1037       C  0.22562681  0.23505058  0.50059780     0.82600
N1038       N  0.22611063  0.21547237  0.50194637    -0.79900
C1039       C  0.99459395  0.74127468  0.05779600     0.80100
N1040       N  0.98440633  0.75518179  0.04821091    -0.78200
C1041       C  0.98476966  0.75579013  0.02859124     0.82500
N1042       N  0.99498967  0.74254824  0.01883902    -0.78200
C1043       C  0.00502374  0.72869251  0.02795377     0.82600
N1044       N  0.00500162  0.72803389  0.04757356    -0.79900
C1045       C  0.75249859  0.05785938  0.00240415     0.80100
N1046       N  0.76519209  0.04669374  0.99232854    -0.78200
C1047       C  0.76339961  0.02712012  0.99256825     0.82500
N1048       N  0.74891015  0.01902163  0.00260144    -0.78200
C1049       C  0.73629630  0.02991398  0.01256604     0.82600
N1050       N  0.73810313  0.04937478  0.01256691    -0.79900
C1051       C  0.06488235  0.00304771  0.75337744     0.80100
N1052       N  0.05425572  0.01172198  0.73922930    -0.78200
C1053       C  0.03471521  0.01058952  0.73965880     0.82500
N1054       N  0.02607628  0.00097714  0.75405961    -0.78200
C1055       C  0.03633232  0.99235413  0.76808137     0.82600
N1056       N  0.05584435  0.99325946  0.76778158    -0.79900
C1057       C  0.21835736  0.75741382  0.97890499     0.01200
C1058       C  0.19878606  0.75408364  0.98277658     0.04000
C1059       C  0.18974621  0.73724661  0.97585621    -0.12100
C1060       C  0.20026815  0.72354179  0.96518394     0.23300
C1061       C  0.21969473  0.72708414  0.96092326    -0.12600
C1062       C  0.22861029  0.74403907  0.96751937     0.04700
C1063       C  0.19049397  0.70631404  0.95691143     0.27100
C1064       C  0.18823559  0.68919791  0.96765757    -0.13300
C1065       C  0.17808821  0.67339108  0.95974781     0.05200
C1066       C  0.17010502  0.67474437  0.94112206    -0.09300
C1067       C  0.17325642  0.69159888  0.93014662     0.06000
C1068       C  0.18337436  0.70723458  0.93799254    -0.13600
Br1069     Br  0.23422882  0.70828302  0.94657401    -0.05700
Br1070     Br  0.18472037  0.77189153  0.99866395    -0.00100
Br1071     Br  0.17436616  0.65033735  0.97464497     0.00400
Br1072     Br  0.18725491  0.73024666  0.92289109    -0.04100
Br1073     Br  0.25520977  0.74879098  0.96136347     0.00500
Br1074     Br  0.16307917  0.73253618  0.98151652    -0.03300
Br1075     Br  0.19879354  0.68766213  0.99327108    -0.04200
Br1076     Br  0.16378282  0.69347689  0.90407233    -0.00200
C1077       C  0.23276539  0.48402198  0.96714419     0.01200
C1078       C  0.21729826  0.49420285  0.97536294     0.04000
C1079       C  0.20846345  0.50930747  0.96518108    -0.12100
C1080       C  0.21526650  0.51450891  0.94684367     0.23300
C1081       C  0.22979556  0.50344997  0.93803522    -0.12600
C1082       C  0.23849227  0.48816730  0.94817427     0.04700
C1083       C  0.20722423  0.53178757  0.93709982     0.27100
C1084       C  0.19185626  0.52974625  0.92416441    -0.13300
C1085       C  0.18326121  0.54612672  0.91593217     0.05200
C1086       C  0.18969680  0.56488446  0.92098706    -0.09300
C1087       C  0.20557787  0.56681945  0.93349359     0.06000
C1088       C  0.21435806  0.55029693  0.94144499    -0.13600
Br1089     Br  0.23844128  0.50997197  0.91253521    -0.05700
Br1090     Br  0.20912431  0.48820946  0.00117823    -0.00100
Br1091     Br  0.16225685  0.54225092  0.89814677     0.00400
Br1092     Br  0.23627960  0.55285501  0.95826929    -0.04100
Br1093     Br  0.25941241  0.47398937  0.93682722     0.00500
Br1094     Br  0.18758942  0.52352149  0.97664406    -0.03300
Br1095     Br  0.18235358  0.50430585  0.91812862    -0.04200
Br1096     Br  0.21608091  0.59193838  0.93882686    -0.00200
C1097       C  0.06523319  0.67542592  0.93496773     0.01200
C1098       C  0.05873901  0.66330708  0.94983433     0.04000
C1099       C  0.04925598  0.67113834  0.96588253    -0.12100
C1100       C  0.04603300  0.69112597  0.96707296     0.23300
C1101       C  0.05226226  0.70325133  0.95203690    -0.12600
C1102       C  0.06202078  0.69540815  0.93608824     0.04700
C1103       C  0.03570317  0.69919727  0.98397244     0.27100
C1104       C  0.01554215  0.69813276  0.98477404    -0.13300
C1105       C  0.00569172  0.70555871  0.00078052     0.05200
C1106       C  0.01580431  0.71512127  0.01562596    -0.09300
C1107       C  0.03602473  0.71579180  0.01503646     0.06000
C1108       C  0.04596573  0.70756049  0.99938295    -0.13600
Br1109     Br  0.04729333  0.73053908  0.95327947    -0.05700
Br1110     Br  0.06305947  0.63592088  0.94831287    -0.00100
Br1111     Br  0.97808996  0.70320397  0.00211253     0.00400
Br1112     Br  0.07361932  0.70849430  0.99851537    -0.04100
Br1113     Br  0.07123160  0.71192387  0.91583999     0.00500
Br1114     Br  0.04078087  0.65453618  0.98642011    -0.03300
Br1115     Br  0.00136512  0.68759213  0.96330792    -0.04200
Br1116     Br  0.05001428  0.72946707  0.03469573    -0.00200
C1117       C  0.18181069  0.56375576  0.82084502     0.01200
C1118       C  0.19779000  0.57557470  0.81671483     0.04000
C1119       C  0.21360092  0.56807737  0.80677033    -0.12100
C1120       C  0.21331355  0.54894348  0.80025046     0.23300
C1121       C  0.19688519  0.53744333  0.80317810    -0.12600
C1122       C  0.18118125  0.54478281  0.81368355     0.04700
C1123       C  0.23040283  0.54117351  0.79025434     0.27100
C1124       C  0.23280285  0.54460451  0.77045755    -0.13300
C1125       C  0.24917589  0.53761654  0.76099886     0.05200
C1126       C  0.26301320  0.52682717  0.77119399    -0.09300
C1127       C  0.26105477  0.52412368  0.79116507     0.06000
C1128       C  0.24477968  0.53137812  0.80072359    -0.13600
Br1129     Br  0.19619786  0.51157670  0.79312528    -0.05700
Br1130     Br  0.19810271  0.60226932  0.82459143    -0.00100
Br1131     Br  0.25239805  0.54210130  0.73378438     0.00400
Br1132     Br  0.24174554  0.52732198  0.82799710    -0.04100
Br1133     Br  0.15949176  0.52854914  0.81929191     0.00500
Br1134     Br  0.23603292  0.58382818  0.80252311    -0.03300
Br1135     Br  0.21322104  0.55820826  0.75621131    -0.04200
Br1136     Br  0.27990483  0.50920808  0.80505654    -0.00200
C1137       C  0.07256217  0.57195405  0.80437704     0.01200
C1138       C  0.06294605  0.58346138  0.79050459     0.04000
C1139       C  0.04616363  0.57672987  0.78139440    -0.12100
C1140       C  0.03933206  0.55806962  0.78521552     0.23300
C1141       C  0.04947772  0.54612273  0.79817440    -0.12600
C1142       C  0.06580138  0.55312999  0.80800809     0.04700
C1143       C  0.02181426  0.55069342  0.77525816     0.27100
C1144       C  0.00436040  0.54870516  0.78535464    -0.13300
C1145       C  0.98896844  0.53832164  0.77711713     0.05200
C1146       C  0.99058943  0.53090617  0.75828320    -0.09300
C1147       C  0.00717101  0.53516695  0.74738794     0.06000
C1148       C  0.02294672  0.54442516  0.75601594    -0.13600
Br1149     Br  0.04076364  0.52012343  0.80261520    -0.05700
Br1150     Br  0.07290925  0.60844266  0.78339874    -0.00100
Br1151     Br  0.96679827  0.53230282  0.79250490     0.00400
Br1152     Br  0.04668793  0.54701196  0.74196247    -0.04100
Br1153     Br  0.07780865  0.53729708  0.82743908     0.00500
Br1154     Br  0.03214707  0.59328995  0.76400646    -0.03300
Br1155     Br  0.00205556  0.55931885  0.81089906    -0.04200
Br1156     Br  0.00874383  0.52712349  0.72080762    -0.00200
C1157       C  0.04765446  0.66248984  0.82695459     0.01200
C1158       C  0.04977189  0.68256804  0.82499646     0.04000
C1159       C  0.04133670  0.69211942  0.80920606    -0.12100
C1160       C  0.03135898  0.68153584  0.79501122     0.23300
C1161       C  0.02839726  0.66166237  0.79750020    -0.12600
C1162       C  0.03611070  0.65226583  0.81366684     0.04700
C1163       C  0.02420787  0.69128603  0.77737208     0.27100
C1164       C  0.00472062  0.69632632  0.77582885    -0.13300
C1165       C  0.99819739  0.70664630  0.75972280     0.05200
C1166       C  0.01130088  0.71324251  0.74571019    -0.09300
C1167       C  0.03057579  0.70703563  0.74657043     0.06000
C1168       C  0.03692234  0.69576521  0.76224175    -0.13600
Br1169     Br  0.01483667  0.64710600  0.77808830    -0.05700
Br1170     Br  0.06588957  0.69667861  0.84267471    -0.00100
Br1171     Br  0.97113125  0.71157978  0.75682095     0.00400
Br1172     Br  0.06319367  0.68701615  0.76347887    -0.04100
Br1173     Br  0.03147501  0.62507759  0.81725550     0.00500
Br1174     Br  0.04419617  0.71959775  0.80645002    -0.03300
Br1175     Br  0.98717184  0.69006311  0.79635826    -0.04200
Br1176     Br  0.04860169  0.71499933  0.72716762    -0.00200
C1177       C  0.94601016  0.93077276  0.82169050     0.01200
C1178       C  0.96268722  0.93286595  0.83323012     0.04000
C1179       C  0.97861663  0.94310164  0.82633487    -0.12100
C1180       C  0.97797490  0.95155796  0.80800058     0.23300
C1181       C  0.96109881  0.95024153  0.79675936    -0.12600
C1182       C  0.94515020  0.93976143  0.80354493     0.04700
C1183       C  0.99510468  0.96176409  0.80050263     0.27100
C1184       C  0.99661855  0.98184725  0.80263635    -0.13300
C1185       C  0.01169826  0.99179593  0.79367689     0.05200
C1186       C  0.02546178  0.98168252  0.78274028    -0.09300
C1187       C  0.02484715  0.96142851  0.78196467     0.06000
C1188       C  0.00963460  0.95146943  0.79080623    -0.13600
Br1189     Br  0.96013152  0.96244883  0.77185546    -0.05700
Br1190     Br  0.96384469  0.92187779  0.85876720    -0.00100
Br1191     Br  0.01285915  0.01952062  0.79526797     0.00400
Br1192     Br  0.00798539  0.92383429  0.78868642    -0.04100
Br1193     Br  0.92274915  0.93665458  0.78750153     0.00500
Br1194     Br  0.00156277  0.94534496  0.84183860    -0.03300
Br1195     Br  0.97742677  0.99575121  0.81702543    -0.04200
Br1196     Br  0.04371112  0.94752074  0.76716630    -0.00200
C1197       C  0.77679534  0.01397799  0.98237839     0.01200
C1198       C  0.78599464  0.99919505  0.99293358     0.04000
C1199       C  0.79472251  0.98360333  0.98334303    -0.12100
C1200       C  0.79489461  0.98294528  0.96308645     0.23300
C1201       C  0.78675022  0.99826797  0.95250576    -0.12600
C1202       C  0.77755953  0.01364145  0.96209943     0.04700
C1203       C  0.80404722  0.96645716  0.95280635     0.27100
C1204       C  0.82400381  0.96645438  0.94969596    -0.13300
C1205       C  0.83248895  0.95200558  0.93833312     0.05200
C1206       C  0.82107179  0.93752248  0.92974740    -0.09300
C1207       C  0.80126237  0.93685978  0.93376089     0.06000
C1208       C  0.79278559  0.95125276  0.94537144    -0.13600
Br1209     Br  0.78777467  0.99781202  0.92476338    -0.05700
Br1210     Br  0.78666717  0.00035440  0.02070097    -0.00100
Br1211     Br  0.85995702  0.95204905  0.93463511     0.00400
Br1212     Br  0.76568150  0.95048263  0.95083068    -0.04100
Br1213     Br  0.76490935  0.03345069  0.94737722     0.00500
Br1214     Br  0.80585906  0.96274426  0.99791696    -0.03300
Br1215     Br  0.83964313  0.98665756  0.96058714    -0.04200
Br1216     Br  0.78562820  0.91696151  0.92244968    -0.00200
C1217       C  0.92843023  0.81495526  0.93641230     0.01200
C1218       C  0.93597586  0.79617932  0.93484860     0.04000
C1219       C  0.94515408  0.78754805  0.95085421    -0.12100
C1220       C  0.94672287  0.79761485  0.96847029     0.23300
C1221       C  0.93964674  0.81650018  0.96987340    -0.12600
C1222       C  0.93064745  0.82517615  0.95396268     0.04700
C1223       C  0.95616825  0.78862374  0.98549881     0.27100
C1224       C  0.94521250  0.77869055  0.99935794    -0.13300
C1225       C  0.95437037  0.76952117  0.01502080     0.05200
C1226       C  0.97450507  0.77034486  0.01692019    -0.09300
C1227       C  0.98525642  0.78137501  0.00370220     0.06000
C1228       C  0.97612752  0.79046173  0.98806990    -0.13600
Br1229     Br  0.94209709  0.83036224  0.99387107    -0.05700
Br1230     Br  0.93268337  0.78189809  0.91129712    -0.00100
Br1231     Br  0.93954247  0.75446793  0.03287789     0.00400
Br1232     Br  0.99100726  0.80490740  0.96969479    -0.04100
Br1233     Br  0.92146164  0.85134690  0.95645600     0.00500
Br1234     Br  0.95521269  0.76175348  0.94893355    -0.03300
Br1235     Br  0.91773762  0.77703332  0.99635573    -0.04200
Br1236     Br  0.01279333  0.78324619  0.00652381    -0.00200
C1237       C  0.94803483  0.82872759  0.82503857     0.01200
C1238       C  0.96312491  0.81529799  0.82742755     0.04000
C1239       C  0.97136553  0.80617502  0.81119566    -0.12100
C1240       C  0.96475373  0.81054369  0.79246820     0.23300
C1241       C  0.95032035  0.82448360  0.79000515    -0.12600
C1242       C  0.94178347  0.83329161  0.80610439     0.04700
C1243       C  0.97142963  0.79925449  0.77544519     0.27100
C1244       C  0.98870372  0.80383697  0.76590590    -0.13300
C1245       C  0.99513812  0.79230664  0.75042876     0.05200
C1246       C  0.98377772  0.77690981  0.74370764    -0.09300
C1247       C  0.96564992  0.77367739  0.75201575     0.06000
C1248       C  0.95982400  0.78425209  0.76825584    -0.13600
Br1249     Br  0.94202213  0.83119376  0.76429396    -0.05700
Br1250     Br  0.97304302  0.80985923  0.85278106    -0.00100
Br1251     Br  0.01989777  0.79685809  0.73902835     0.00400
Br1252     Br  0.93630563  0.77756286  0.78125695    -0.04100
Br1253     Br  0.92050912  0.85061371  0.80171289     0.00500
Br1254     Br  0.99162330  0.78751241  0.81450773    -0.03300
Br1255     Br  0.00359921  0.82564767  0.77429677    -0.04200
Br1256     Br  0.94882065  0.75458433  0.74104263    -0.00200
C1257       C  0.74876444  0.97579948  0.77787240     0.01200
C1258       C  0.75400407  0.95650290  0.78133566     0.04000
C1259       C  0.77056151  0.95219951  0.79231587    -0.12100
C1260       C  0.78268101  0.96715173  0.79887001     0.23300
C1261       C  0.77732585  0.98645487  0.79555236    -0.12600
C1262       C  0.76019264  0.99071933  0.78558710     0.04700
C1263       C  0.80130756  0.96250296  0.80862363     0.27100
C1264       C  0.80329424  0.96483933  0.82862495    -0.13300
C1265       C  0.82059656  0.95975879  0.83792278     0.05200
C1266       C  0.83551079  0.95018199  0.82765388    -0.09300
C1267       C  0.83370937  0.94869346  0.80728404     0.06000
C1268       C  0.81700546  0.95556124  0.79788625    -0.13600
Br1269     Br  0.79427790  0.00705528  0.80319793    -0.05700
Br1270     Br  0.73975814  0.93605145  0.76915958    -0.00100
Br1271     Br  0.82365310  0.96713931  0.86463080     0.00400
Br1272     Br  0.81537313  0.95542401  0.77011681    -0.04100
Br1273     Br  0.75303673  0.01719574  0.78100604     0.00500
Br1274     Br  0.77721962  0.92575808  0.79761080    -0.03300
Br1275     Br  0.78187000  0.97439095  0.84346238    -0.04200
Br1276     Br  0.85314418  0.93642574  0.79169112    -0.00200
C1277       C  0.98773362  0.21198993  0.75863141     0.01200
C1278       C  0.97029440  0.20194538  0.76129259     0.04000
C1279       C  0.96256821  0.19079883  0.74609195    -0.12100
C1280       C  0.97189412  0.19009315  0.72809366     0.23300
C1281       C  0.99012536  0.19851940  0.72610330    -0.12600
C1282       C  0.99835751  0.20867278  0.74155354     0.04700
C1283       C  0.96233393  0.18125038  0.71099665     0.27100
C1284       C  0.96787827  0.16288668  0.70450136    -0.13300
C1285       C  0.95981484  0.15512540  0.68754761     0.05200
C1286       C  0.94517674  0.16524063  0.67743283    -0.09300
C1287       C  0.93936661  0.18356246  0.68435368     0.06000
C1288       C  0.94829949  0.19167712  0.70070717    -0.13600
Br1289     Br  0.00327322  0.19733232  0.70168684    -0.05700
Br1290     Br  0.95627889  0.20411771  0.78507292    -0.00100
Br1291     Br  0.96969952  0.13086140  0.67812193     0.00400
Br1292     Br  0.94129163  0.21722620  0.70919086    -0.04100
Br1293     Br  0.02436812  0.21810459  0.73911159     0.00500
Br1294     Br  0.93875940  0.17710601  0.74947259    -0.03300
Br1295     Br  0.98641802  0.14827013  0.71919395    -0.04200
Br1296     Br  0.91811921  0.19723642  0.67272670    -0.00200
C1297       C  0.91846724  0.18974944  0.57114319     0.01200
C1298       C  0.90766068  0.20043575  0.55746239     0.04000
C1299       C  0.91684834  0.20959302  0.54198714    -0.12100
C1300       C  0.93698023  0.20952988  0.54071908     0.23300
C1301       C  0.94794646  0.20030123  0.55510313    -0.12600
C1302       C  0.93877245  0.19001295  0.57001153     0.04700
C1303       C  0.94647146  0.22002573  0.52467545     0.27100
C1304       C  0.95256950  0.21018170  0.50799677    -0.13300
C1305       C  0.96171091  0.22027151  0.49295246     0.05200
C1306       C  0.96422171  0.24039939  0.49427399    -0.09300
C1307       C  0.95692287  0.25031437  0.51052308     0.06000
C1308       C  0.94863977  0.24011032  0.52584874    -0.13600
Br1309     Br  0.97559140  0.20170288  0.55413485    -0.05700
Br1310     Br  0.88013729  0.20334919  0.56002520    -0.00100
Br1311     Br  0.97200562  0.20621366  0.47136206     0.00400
Br1312     Br  0.94087220  0.25352985  0.54892252    -0.04100
Br1313     Br  0.95424380  0.17538517  0.58786204     0.00500
Br1314     Br  0.90182574  0.22193427  0.52208220    -0.03300
Br1315     Br  0.94882051  0.18275624  0.50610237    -0.04200
Br1316     Br  0.95796106  0.27807552  0.51189737    -0.00200
C1317       C  0.02204529  0.01951603  0.72509526     0.01200
C1318       C  0.01963829  0.03965442  0.72472654     0.04000
C1319       C  0.00353970  0.04779090  0.71541573    -0.12100
C1320       C  0.98958956  0.03579644  0.70682861     0.23300
C1321       C  0.99243594  0.01574211  0.70645583    -0.12600
C1322       C  0.00873570  0.00765685  0.71532438     0.04700
C1323       C  0.97200587  0.04430959  0.69807812     0.27100
C1324       C  0.95564464  0.04809374  0.70943545    -0.13300
C1325       C  0.93958631  0.05757954  0.70136287     0.05200
C1326       C  0.93991839  0.06334115  0.68192560    -0.09300
C1327       C  0.95583686  0.05836766  0.67032625     0.06000
C1328       C  0.97179891  0.04891335  0.67838514    -0.13600
Br1329     Br  0.97343230  0.99933157  0.69463419    -0.05700
Br1330     Br  0.03737646  0.05593712  0.73850303    -0.00100
Br1331     Br  0.91771026  0.06368283  0.71716423     0.00400
Br1332     Br  0.99369275  0.04262525  0.66259281    -0.04100
Br1333     Br  0.01250899  0.98011127  0.71478756     0.00500
Br1334     Br  0.00004141  0.07533776  0.71513308    -0.03300
Br1335     Br  0.95556221  0.04069606  0.73616998    -0.04200
Br1336     Br  0.95584647  0.06450336  0.64321297    -0.00200
C1337       C  0.81975907  0.17275512  0.56806903     0.01200
C1338       C  0.80785652  0.17053740  0.55173174     0.04000
C1339       C  0.79800312  0.18658414  0.54394590    -0.12100
C1340       C  0.80004701  0.20501425  0.55231196     0.23300
C1341       C  0.81171673  0.20721106  0.56872968    -0.12600
C1342       C  0.82136980  0.19120005  0.57666741     0.04700
C1343       C  0.78956539  0.22199582  0.54415926     0.27100
C1344       C  0.79723408  0.23238148  0.52850356    -0.13300
C1345       C  0.78653933  0.24740367  0.51988841     0.05200
C1346       C  0.76829186  0.25236399  0.52709326    -0.09300
C1347       C  0.76131125  0.24294312  0.54360966     0.06000
C1348       C  0.77177372  0.22769407  0.55198608    -0.13600
Br1349     Br  0.81440337  0.23233536  0.58033094    -0.05700
Br1350     Br  0.80566199  0.14572518  0.53947619    -0.00100
Br1351     Br  0.79629773  0.26049904  0.49753731     0.00400
Br1352     Br  0.76127696  0.21391241  0.57360279    -0.04100
Br1353     Br  0.83599111  0.19461300  0.60003920     0.00500
Br1354     Br  0.78163564  0.18342401  0.52174293    -0.03300
Br1355     Br  0.82208855  0.22547840  0.51847643    -0.04200
Br1356     Br  0.73691734  0.25060309  0.55426487    -0.00200
C1357       C  0.77200009  0.98315588  0.52331219     0.01200
C1358       C  0.76438575  0.98707811  0.54166396     0.04000
C1359       C  0.77282620  0.00139913  0.55337143    -0.12100
C1360       C  0.78793690  0.01280168  0.54611214     0.23300
C1361       C  0.79588135  0.00836931  0.52799870    -0.12600
C1362       C  0.78854493  0.99295766  0.51716846     0.04700
C1363       C  0.79612617  0.02894457  0.55762693     0.27100
C1364       C  0.78645565  0.04680180  0.55905546    -0.13300
C1365       C  0.79470455  0.06217621  0.56955580     0.05200
C1366       C  0.81302148  0.05998757  0.57796251    -0.09300
C1367       C  0.82304599  0.04235937  0.57555198     0.06000
C1368       C  0.81431098  0.02674110  0.56617989    -0.13600
Br1369     Br  0.81622881  0.02399574  0.51752001    -0.05700
Br1370     Br  0.74196292  0.97342750  0.55029886    -0.00100
Br1371     Br  0.78056097  0.08575451  0.57315540     0.00400
Br1372     Br  0.82714655  0.00204954  0.56536349    -0.04100
Br1373     Br  0.80133345  0.98492942  0.49396859     0.00500
Br1374     Br  0.76368620  0.00554380  0.57920655    -0.03300
Br1375     Br  0.76189374  0.05011819  0.54662587    -0.04200
Br1376     Br  0.84932403  0.03959099  0.58428287    -0.00200
C1377       C  0.83055720  0.04404087  0.67447043     0.01200
C1378       C  0.82008915  0.03090770  0.66283379     0.04000
C1379       C  0.80296871  0.02259620  0.66957491    -0.12100
C1380       C  0.79693549  0.02579281  0.68862007     0.23300
C1381       C  0.80825611  0.03741780  0.70089553    -0.12600
C1382       C  0.82471176  0.04692910  0.69374988     0.04700
C1383       C  0.77905993  0.01639054  0.69587369     0.27100
C1384       C  0.76215311  0.02723736  0.69895525    -0.13300
C1385       C  0.74612850  0.01875270  0.70806835     0.05200
C1386       C  0.74662338  0.99913589  0.71328688    -0.09300
C1387       C  0.76255965  0.98782044  0.70772529     0.06000
C1388       C  0.77900695  0.99650976  0.69989654    -0.13600
Br1389     Br  0.80100147  0.04043749  0.72752045    -0.05700
Br1390     Br  0.82943154  0.02346664  0.63769828    -0.00100
Br1391     Br  0.72436880  0.03442581  0.71499899     0.00400
Br1392     Br  0.80203606  0.98142483  0.69629208    -0.04100
Br1393     Br  0.83828737  0.06471963  0.71020053     0.00500
Br1394     Br  0.78728936  0.00736053  0.65238411    -0.03300
Br1395     Br  0.76137426  0.05396058  0.69151487    -0.04200
Br1396     Br  0.76220541  0.96035016  0.71202975    -0.00200
C1397       C  0.77620622  0.74759915  0.97588648     0.01200
C1398       C  0.76768750  0.75929688  0.96164669     0.04000
C1399       C  0.77774447  0.77509272  0.95410895    -0.12100
C1400       C  0.79633140  0.77934023  0.96088859     0.23300
C1401       C  0.80512974  0.76726375  0.97465186    -0.12600
C1402       C  0.79509733  0.75133943  0.98207004     0.04700
C1403       C  0.80691774  0.79604135  0.95293101     0.27100
C1404       C  0.82002660  0.79306683  0.93790472    -0.13300
C1405       C  0.83025366  0.80866750  0.93022958     0.05200
C1406       C  0.82741056  0.82752691  0.93754320    -0.09300
C1407       C  0.81393468  0.83052463  0.95240768     0.06000
C1408       C  0.80374497  0.81477959  0.96009648    -0.13600
Br1409     Br  0.83058291  0.77313381  0.98393715    -0.05700
Br1410     Br  0.74183467  0.75402161  0.95305458    -0.00100
Br1411     Br  0.84743935  0.80385568  0.90897469     0.00400
Br1412     Br  0.78548679  0.81873363  0.98055172    -0.04100
Br1413     Br  0.80663909  0.73542909  0.00167692     0.00500
Br1414     Br  0.76586715  0.79133928  0.93495392    -0.03300
Br1415     Br  0.82368191  0.76743638  0.92766693    -0.04200
Br1416     Br  0.80999183  0.85593541  0.96293359    -0.00200
C1417       C  0.57064540  0.91867524  0.18915326     0.01200
C1418       C  0.55266934  0.91029127  0.18386068     0.04000
C1419       C  0.53530583  0.91869580  0.18987308    -0.12100
C1420       C  0.53544349  0.93541005  0.20117839     0.23300
C1421       C  0.55307688  0.94324663  0.20738690    -0.12600
C1422       C  0.57062645  0.93487807  0.20150889     0.04700
C1423       C  0.51690526  0.94480303  0.20621940     0.27100
C1424       C  0.50845034  0.95818501  0.19348850    -0.13300
C1425       C  0.49153287  0.96796302  0.19878674     0.05200
C1426       C  0.48285722  0.96420559  0.21665341    -0.09300
C1427       C  0.49018446  0.94934764  0.22838149     0.06000
C1428       C  0.50733712  0.93985937  0.22334436    -0.13600
Br1429     Br  0.55301944  0.96557597  0.22390257    -0.05700
Br1430     Br  0.55074832  0.88772461  0.16760293    -0.00100
Br1431     Br  0.48076471  0.98744515  0.18222706     0.00400
Br1432     Br  0.51825156  0.92071122  0.24023555    -0.04100
Br1433     Br  0.59446878  0.94508621  0.21133182     0.00500
Br1434     Br  0.51094344  0.90760473  0.18230674    -0.03300
Br1435     Br  0.52053476  0.96366310  0.16917527    -0.04200
Br1436     Br  0.47698036  0.94258189  0.25172699    -0.00200
C1437       C  0.76204430  0.97817825  0.21927408     0.01200
C1438       C  0.75809425  0.98501872  0.20057346     0.04000
C1439       C  0.74252857  0.97749209  0.18995727    -0.12100
C1440       C  0.73062821  0.96328656  0.19810435     0.23300
C1441       C  0.73509850  0.95578898  0.21641469    -0.12600
C1442       C  0.75071016  0.96324451  0.22697432     0.04700
C1443       C  0.71360860  0.95592277  0.18734790     0.27100
C1444       C  0.69559952  0.96521114  0.18874116    -0.13300
C1445       C  0.67947452  0.95789636  0.17870759     0.05200
C1446       C  0.68127766  0.94113202  0.16739956    -0.09300
C1447       C  0.69936361  0.93173882  0.16634261     0.06000
C1448       C  0.71543162  0.93927697  0.17601905    -0.13600
Br1449     Br  0.71929553  0.93578244  0.22726568    -0.05700
Br1450     Br  0.77291119  0.00590943  0.19015975    -0.00100
Br1451     Br  0.65532121  0.97140970  0.17956230     0.00400
Br1452     Br  0.74022986  0.92702962  0.17350770    -0.04100
Br1453     Br  0.75599293  0.95377158  0.25253821     0.00500
Br1454     Br  0.73698719  0.98710438  0.16451081    -0.03300
Br1455     Br  0.69326867  0.98821335  0.20409637    -0.04200
Br1456     Br  0.70238548  0.90804913  0.15201228    -0.00200
C1457       C  0.67597819  0.93910194  0.06537884     0.01200
C1458       C  0.66644595  0.95691748  0.06833166     0.04000
C1459       C  0.67393501  0.97403558  0.06057051    -0.12100
C1460       C  0.69110253  0.97355958  0.05003003     0.23300
C1461       C  0.70060103  0.95585834  0.04695786    -0.12600
C1462       C  0.69297350  0.93865107  0.05444554     0.04700
C1463       C  0.69909775  0.99145269  0.04157503     0.27100
C1464       C  0.69607324  0.99534005  0.02192767    -0.13300
C1465       C  0.70721482  0.00935611  0.01263537     0.05200
C1466       C  0.72091963  0.01999258  0.02312518    -0.09300
C1467       C  0.72228159  0.01770917  0.04322620     0.06000
C1468       C  0.71141123  0.00335849  0.05246466    -0.13600
Br1469     Br  0.72447445  0.95537385  0.03291729    -0.05700
Br1470     Br  0.64283430  0.95810429  0.08272105    -0.00100
Br1471     Br  0.70466209  0.01314758  0.98524228     0.00400
Br1472     Br  0.71421701  0.99918315  0.07975878    -0.04100
Br1473     Br  0.70645859  0.91469187  0.05066323     0.00500
Br1474     Br  0.66082029  0.99825129  0.06438086    -0.03300
Br1475     Br  0.67734973  0.98066858  0.00764327    -0.04200
Br1476     Br  0.74035225  0.03290611  0.05775843    -0.00200
C1477       C  0.57150714  0.81910812  0.18198000     0.01200
C1478       C  0.58272080  0.81418390  0.19826534     0.04000
C1479       C  0.57450047  0.80404531  0.21364190    -0.12100
C1480       C  0.55518228  0.79830418  0.21267585     0.23300
C1481       C  0.54430918  0.80201022  0.19591214    -0.12600
C1482       C  0.55240735  0.81253591  0.18060931     0.04700
C1483       C  0.54628859  0.78863239  0.22946048     0.27100
C1484       C  0.54854782  0.76865709  0.23200776    -0.13300
C1485       C  0.53963836  0.75941629  0.24758739     0.05200
C1486       C  0.52826066  0.77006575  0.26056801    -0.09300
C1487       C  0.52653956  0.79014608  0.25841205     0.06000
C1488       C  0.53570138  0.79945380  0.24296563    -0.13600
Br1489     Br  0.51816014  0.79305635  0.19425365    -0.05700
Br1490     Br  0.60955241  0.82117391  0.19955939    -0.00100
Br1491     Br  0.54250069  0.73196693  0.25089087     0.00400
Br1492     Br  0.53328657  0.82694312  0.23986636    -0.04100
Br1493     Br  0.53692218  0.81904540  0.15849695     0.00500
Br1494     Br  0.58949711  0.79848915  0.23639064    -0.03300
Br1495     Br  0.56327482  0.75391114  0.21369406    -0.04200
Br1496     Br  0.51036031  0.80460322  0.27567495    -0.00200
C1497       C  0.66986262  0.82488745  0.05555077     0.01200
C1498       C  0.67957964  0.82609395  0.03783441     0.04000
C1499       C  0.68993544  0.81002701  0.03085818    -0.12100
C1500       C  0.69039326  0.79269034  0.04146062     0.23300
C1501       C  0.68083782  0.79151917  0.05915538    -0.12600
C1502       C  0.67086087  0.80754347  0.06631300     0.04700
C1503       C  0.70206557  0.77604058  0.03488732     0.27100
C1504       C  0.69395648  0.76152746  0.02320625    -0.13300
C1505       C  0.70547720  0.74620210  0.01654168     0.05200
C1506       C  0.72500384  0.74525220  0.02183008    -0.09300
C1507       C  0.73257938  0.75890252  0.03481851     0.06000
C1508       C  0.72122277  0.77435926  0.04115198    -0.13600
Br1509     Br  0.68143349  0.76771310  0.07355119    -0.05700
Br1510     Br  0.67789740  0.84927522  0.02274086    -0.00100
Br1511     Br  0.69497661  0.72741925  0.99900453     0.00400
Br1512     Br  0.73207863  0.79372460  0.05786849    -0.04100
Br1513     Br  0.65893423  0.80543694  0.09130042     0.00500
Br1514     Br  0.70334793  0.81152151  0.00668698    -0.03300
Br1515     Br  0.66728409  0.76307743  0.01588497    -0.04200
Br1516     Br  0.75890518  0.75674390  0.04335044    -0.00200
C1517       C  0.31965067  0.56478521  0.17942045     0.01200
C1518       C  0.30052378  0.57013928  0.17436482     0.04000
C1519       C  0.28478527  0.56285760  0.18470590    -0.12100
C1520       C  0.28776068  0.55036881  0.20027178     0.23300
C1521       C  0.30659671  0.54551196  0.20591041    -0.12600
C1522       C  0.32251271  0.55271064  0.19562991     0.04700
C1523       C  0.27096353  0.54161817  0.21008150     0.27100
C1524       C  0.26295888  0.55033644  0.22654893    -0.13300
C1525       C  0.24798967  0.54111506  0.23652584     0.05200
C1526       C  0.24047293  0.52360650  0.22960785    -0.09300
C1527       C  0.24755557  0.51564591  0.21239393     0.06000
C1528       C  0.26296806  0.52445694  0.20280619    -0.13600
Br1529     Br  0.31040582  0.52866237  0.22767086    -0.05700
Br1530     Br  0.29510780  0.58840210  0.15408055    -0.00100
Br1531     Br  0.23864668  0.55161790  0.26043648     0.00400
Br1532     Br  0.27389401  0.51249780  0.18028235    -0.04100
Br1533     Br  0.34801465  0.54527090  0.20369578     0.00500
Br1534     Br  0.25882657  0.56994970  0.17768986    -0.03300
Br1535     Br  0.27299954  0.57450652  0.23574096    -0.04200
Br1536     Br  0.23685242  0.49193121  0.20270969    -0.00200
C1537       C  0.31284530  0.56942892  0.07440665     0.01200
C1538       C  0.32509452  0.55379692  0.06981836     0.04000
C1539       C  0.31861319  0.53872942  0.05794095    -0.12100
C1540       C  0.29988968  0.53909387  0.05034461     0.23300
C1541       C  0.28797195  0.55518274  0.05392679    -0.12600
C1542       C  0.29442010  0.57032409  0.06596374     0.04700
C1543       C  0.29299423  0.52244456  0.03861226     0.27100
C1544       C  0.29646285  0.52191931  0.01867286    -0.13300
C1545       C  0.29048474  0.50596531  0.00766381     0.05200
C1546       C  0.28083776  0.49036846  0.01645279    -0.09300
C1547       C  0.27807045  0.49055511  0.03655086     0.06000
C1548       C  0.28409667  0.50656461  0.04757515    -0.13600
Br1549     Br  0.26278948  0.55628045  0.04242396    -0.05700
Br1550     Br  0.35117154  0.55308310  0.07935703    -0.00100
Br1551     Br  0.29534719  0.50559890  0.98030215     0.00400
Br1552     Br  0.27963124  0.50714017  0.07493756    -0.04100
Br1553     Br  0.27775665  0.59175520  0.07157564     0.00500
Br1554     Br  0.33538007  0.51736024  0.05204628    -0.03300
Br1555     Br  0.30904908  0.54336984  0.00642071    -0.04200
Br1556     Br  0.26490421  0.46950854  0.04881855    -0.00200
C1557       C  0.26554683  0.76348387  0.02874795     0.01200
C1558       C  0.25695840  0.75077071  0.04200382     0.04000
C1559       C  0.26764822  0.73559507  0.05006115    -0.12100
C1560       C  0.28690559  0.73278699  0.04462725     0.23300
C1561       C  0.29593256  0.74629635  0.03250447    -0.12600
C1562       C  0.28526992  0.76169977  0.02465356     0.04700
C1563       C  0.29752031  0.71558928  0.05172574     0.27100
C1564       C  0.30920989  0.71716860  0.06811445    -0.13300
C1565       C  0.31861241  0.70083503  0.07547986     0.05200
C1566       C  0.31648259  0.68258983  0.06647029    -0.09300
C1567       C  0.30467088  0.68105808  0.05000379     0.06000
C1568       C  0.29527376  0.69753867  0.04263310    -0.13600
Br1569     Br  0.32261584  0.74303095  0.02588996    -0.05700
Br1570     Br  0.23001588  0.75336144  0.04800105    -0.00100
Br1571     Br  0.33362349  0.70387621  0.09860898     0.00400
Br1572     Br  0.27943895  0.69558922  0.01990166    -0.04100
Br1573     Br  0.29720344  0.77931598  0.00697283     0.00500
Br1574     Br  0.25573081  0.71809417  0.06795309    -0.03300
Br1575     Br  0.31206442  0.74189096  0.08061515    -0.04200
Br1576     Br  0.30201701  0.65668341  0.03699671    -0.00200
C1577       C  0.42906267  0.68486586  0.18361652     0.01200
C1578       C  0.44676485  0.69451406  0.18216613     0.04000
C1579       C  0.45486648  0.70335044  0.19855022    -0.12100
C1580       C  0.44553726  0.70208519  0.21650770     0.23300
C1581       C  0.42787052  0.69248407  0.21796051    -0.12600
C1582       C  0.41953900  0.68410428  0.20154612     0.04700
C1583       C  0.45438814  0.71066364  0.23394466     0.27100
C1584       C  0.46794873  0.70007859  0.24471022    -0.13300
C1585       C  0.47756581  0.70882093  0.26025554     0.05200
C1586       C  0.47364335  0.72812513  0.26501235    -0.09300
C1587       C  0.45905822  0.73819058  0.25516893     0.06000
C1588       C  0.44945667  0.72949950  0.23961145    -0.13600
Br1589     Br  0.41530571  0.69060054  0.24262966    -0.05700
Br1590     Br  0.46043971  0.69453071  0.15808297    -0.00100
Br1591     Br  0.49728890  0.69499346  0.27404163     0.00400
Br1592     Br  0.43041308  0.74374040  0.22527913    -0.04100
Br1593     Br  0.39480142  0.67195480  0.20378448     0.00500
Br1594     Br  0.47885714  0.71701452  0.19656141    -0.03300
Br1595     Br  0.47411355  0.67401594  0.23736888    -0.04200
Br1596     Br  0.45319002  0.76436763  0.26237115    -0.00200
C1597       C  0.52159603  0.77077606  0.99039707     0.01200
C1598       C  0.53083289  0.75833843  0.00353713     0.04000
C1599       C  0.54138485  0.76586546  0.01908220    -0.12100
C1600       C  0.54330499  0.78593576  0.02130756     0.23300
C1601       C  0.53514387  0.79839602  0.00746004    -0.12600
C1602       C  0.52408217  0.79082867  0.99217043     0.04700
C1603       C  0.55357118  0.79375853  0.03846332     0.27100
C1604       C  0.54318370  0.80064198  0.05444479    -0.13300
C1605       C  0.55290617  0.80794200  0.07076547     0.05200
C1606       C  0.57328995  0.80797568  0.07139771    -0.09300
C1607       C  0.58349958  0.79935954  0.05588107     0.06000
C1608       C  0.57371705  0.79312020  0.03926592    -0.13600
Br1609     Br  0.53837838  0.82584107  0.01004261    -0.05700
Br1610     Br  0.52802570  0.73081277  0.00079147    -0.00100
Br1611     Br  0.53777965  0.81808070  0.09173228     0.00400
Br1612     Br  0.58794285  0.78392779  0.01723683    -0.04100
Br1613     Br  0.51088409  0.80789939  0.97471756     0.00500
Br1614     Br  0.55213867  0.74867865  0.03810673    -0.03300
Br1615     Br  0.51546154  0.80015625  0.05376962    -0.04200
Br1616     Br  0.61085466  0.79450478  0.05742288    -0.00200
C1617       C  0.45938611  0.74121889  0.99209659     0.01200
C1618       C  0.45585302  0.72135015  0.99414207     0.04000
C1619       C  0.44563433  0.71451212  0.01026992    -0.12100
C1620       C  0.43903235  0.72750212  0.02444800     0.23300
C1621       C  0.44153371  0.74742111  0.02175223    -0.12600
C1622       C  0.45144809  0.75424737  0.00553844     0.04700
C1623       C  0.42945788  0.72025986  0.04217530     0.27100
C1624       C  0.40932618  0.72070922  0.04355481    -0.13300
C1625       C  0.40018445  0.71305690  0.05985096     0.05200
C1626       C  0.41100736  0.70371309  0.07441818    -0.09300
C1627       C  0.43126762  0.70461214  0.07373112     0.06000
C1628       C  0.44043232  0.71307370  0.05771365    -0.13600
Br1629     Br  0.43230255  0.76531152  0.04088929    -0.05700
Br1630     Br  0.46630083  0.70341383  0.97574142    -0.00100
Br1631     Br  0.37265340  0.71565162  0.06219466     0.00400
Br1632     Br  0.46807482  0.71436685  0.05666166    -0.04100
Br1633     Br  0.45485642  0.78162120  0.00206761     0.00500
Br1634     Br  0.44139911  0.68727390  0.01347703    -0.03300
Br1635     Br  0.39420311  0.73103393  0.02262107    -0.04200
Br1636     Br  0.44662251  0.69335317  0.09395209    -0.00200
C1637       C  0.51484922  0.53073899  0.22071775     0.01200
C1638       C  0.50544744  0.52497994  0.20368006     0.04000
C1639       C  0.48875917  0.53461865  0.19740318    -0.12100
C1640       C  0.48200508  0.55092673  0.20744405     0.23300
C1641       C  0.49242107  0.55775198  0.22350855    -0.12600
C1642       C  0.50849068  0.54740252  0.23040714     0.04700
C1643       C  0.46454941  0.56136994  0.20046504     0.27100
C1644       C  0.46597342  0.57342779  0.18430678    -0.13300
C1645       C  0.44958868  0.58278145  0.17702989     0.05200
C1646       C  0.43176552  0.58158914  0.18680281    -0.09300
C1647       C  0.43025563  0.56934496  0.20293791     0.06000
C1648       C  0.44653634  0.55896614  0.20949580    -0.13600
Br1649     Br  0.48433306  0.58101565  0.23630467    -0.05700
Br1650     Br  0.51532451  0.50346497  0.18922419    -0.00100
Br1651     Br  0.45162667  0.59630833  0.15279383     0.00400
Br1652     Br  0.44430680  0.54149592  0.23090961    -0.04100
Br1653     Br  0.52100113  0.55523921  0.25388664     0.00500
Br1654     Br  0.47452906  0.52486282  0.17562784    -0.03300
Br1655     Br  0.49067380  0.57756579  0.17241376    -0.04200
Br1656     Br  0.40627533  0.56737400  0.21654630    -0.00200
C1657       C  0.31025886  0.43286358  0.41904928     0.01200
C1658       C  0.29844305  0.44578554  0.40856973     0.04000
C1659       C  0.28962993  0.46152028  0.41784721    -0.12100
C1660       C  0.29191698  0.46416522  0.43780469     0.23300
C1661       C  0.30252839  0.45056429  0.44854335    -0.12600
C1662       C  0.31179038  0.43504357  0.43923042     0.04700
C1663       C  0.28276235  0.48093334  0.44765761     0.27100
C1664       C  0.29349427  0.49763359  0.45195292    -0.13300
C1665       C  0.28542108  0.51249398  0.46328655     0.05200
C1666       C  0.26635989  0.51090085  0.46998533    -0.09300
C1667       C  0.25514245  0.49493573  0.46405233     0.06000
C1668       C  0.26341739  0.47989222  0.45330487    -0.13600
Br1669     Br  0.30470257  0.45359465  0.47606924    -0.05700
Br1670     Br  0.29386200  0.44179239  0.38142056    -0.00100
Br1671     Br  0.30099200  0.53420242  0.47069470     0.00400
Br1672     Br  0.24847606  0.45735536  0.44696319    -0.04100
Br1673     Br  0.32753999  0.41768188  0.45414471     0.00500
Br1674     Br  0.27482633  0.47987437  0.40314296    -0.03300
Br1675     Br  0.31948507  0.49974003  0.44271972    -0.04200
Br1676     Br  0.22819225  0.49355070  0.47050072    -0.00200
C1677       C  0.43862207  0.42211406  0.30619525     0.01200
C1678       C  0.43752991  0.44229581  0.30368459     0.04000
C1679       C  0.45191565  0.45202459  0.29319135    -0.12100
C1680       C  0.46802155  0.44189163  0.28617329     0.23300
C1681       C  0.46886083  0.42177225  0.28816307    -0.12600
C1682       C  0.45387627  0.41185902  0.29736181     0.04700
C1683       C  0.48420690  0.45232512  0.27685601     0.27100
C1684       C  0.48563092  0.45285552  0.25665779    -0.13300
C1685       C  0.50078710  0.46289854  0.24787818     0.05200
C1686       C  0.51426861  0.47310726  0.25917451    -0.09300
C1687       C  0.51334998  0.47185477  0.27939482     0.06000
C1688       C  0.49842296  0.46137186  0.28820152    -0.13600
Br1689     Br  0.49104994  0.40786722  0.27893683    -0.05700
Br1690     Br  0.41733707  0.45699056  0.31571062    -0.00100
Br1691     Br  0.50312783  0.46258239  0.22022940     0.00400
Br1692     Br  0.49699892  0.45987686  0.31586309    -0.04100
Br1693     Br  0.45411232  0.38402535  0.29709166     0.00500
Br1694     Br  0.44988074  0.47934514  0.28864324    -0.03300
Br1695     Br  0.46629387  0.44049147  0.24101839    -0.04200
Br1696     Br  0.53171151  0.48554040  0.29505586    -0.00200
C1697       C  0.32847814  0.32490721  0.44177112     0.01200
C1698       C  0.30889278  0.32148038  0.43695336     0.04000
C1699       C  0.29898611  0.30557739  0.44479921    -0.12100
C1700       C  0.30839378  0.29258470  0.45719617     0.23300
C1701       C  0.32773371  0.29582484  0.46212645    -0.12600
C1702       C  0.33768824  0.31192844  0.45473512     0.04700
C1703       C  0.29749844  0.27623351  0.46598723     0.27100
C1704       C  0.28985502  0.27823965  0.48461525    -0.13300
C1705       C  0.27856088  0.26349549  0.49260746     0.05200
C1706       C  0.27353922  0.24709980  0.48155312    -0.09300
C1707       C  0.28168019  0.24478581  0.46309813     0.06000
C1708       C  0.29399234  0.25911147  0.45555713    -0.13600
Br1709     Br  0.34050047  0.27799374  0.47924181    -0.05700
Br1710     Br  0.29524017  0.33766828  0.41887426    -0.00100
Br1711     Br  0.26989113  0.26594589  0.51891597     0.00400
Br1712     Br  0.30548661  0.25576591  0.43057896    -0.04100
Br1713     Br  0.36371557  0.31620668  0.46353753     0.00500
Br1714     Br  0.27220819  0.30148858  0.43870574    -0.03300
Br1715     Br  0.29381086  0.30186469  0.49873259    -0.04200
Br1716     Br  0.27470387  0.22296824  0.44742563    -0.00200
C1717       C  0.24349049  0.47423662  0.27781945     0.01200
C1718       C  0.25009666  0.48085098  0.29580130     0.04000
C1719       C  0.26635129  0.47234901  0.30436124    -0.12100
C1720       C  0.27625027  0.45750398  0.29471422     0.23300
C1721       C  0.26906768  0.45025122  0.27718724    -0.12600
C1722       C  0.25259952  0.45852001  0.26884157     0.04700
C1723       C  0.29397502  0.44926830  0.30325580     0.27100
C1724       C  0.31214586  0.45692146  0.29867510    -0.13300
C1725       C  0.32885402  0.44953500  0.30755463     0.05200
C1726       C  0.32736733  0.43450294  0.32112262    -0.09300
C1727       C  0.30906864  0.42652359  0.32514061     0.06000
C1728       C  0.29250933  0.43393042  0.31627407    -0.13600
Br1729     Br  0.28233369  0.42959203  0.26425994    -0.05700
Br1730     Br  0.23762886  0.50246445  0.30794355    -0.00100
Br1731     Br  0.35350075  0.46074224  0.30185059     0.00400
Br1732     Br  0.26757516  0.42320322  0.32200432    -0.04100
Br1733     Br  0.24298905  0.44908996  0.24454615     0.00500
Br1734     Br  0.27558139  0.48147387  0.32892596    -0.03300
Br1735     Br  0.31394044  0.47779982  0.28049513    -0.04200
Br1736     Br  0.30626231  0.40485881  0.34226164    -0.00200
C1737       C  0.49705714  0.28561389  0.24874158     0.01200
C1738       C  0.50632099  0.28490317  0.26697256     0.04000
C1739       C  0.49810004  0.29398572  0.28303085    -0.12100
C1740       C  0.48154654  0.30535394  0.28082590     0.23300
C1741       C  0.47389898  0.30844837  0.26224564    -0.12600
C1742       C  0.48150769  0.29849402  0.24620175     0.04700
C1743       C  0.47203471  0.31354426  0.29819654     0.27100
C1744       C  0.45618301  0.30403444  0.30643893    -0.13300
C1745       C  0.44721748  0.31162790  0.32297390     0.05200
C1746       C  0.45437852  0.32857385  0.33168247    -0.09300
C1747       C  0.47091487  0.33743693  0.32396923     0.06000
C1748       C  0.47944437  0.33018820  0.30708781    -0.13600
Br1749     Br  0.45240222  0.32569067  0.25910095    -0.05700
Br1750     Br  0.53051614  0.27150832  0.27023925    -0.00100
Br1751     Br  0.42435597  0.29941021  0.33274065     0.00400
Br1752     Br  0.50107468  0.34327198  0.29580064    -0.04100
Br1753     Br  0.46997464  0.30211224  0.22121975     0.00500
Br1754     Br  0.50875691  0.28974354  0.30838620    -0.03300
Br1755     Br  0.44661343  0.28068400  0.29479547    -0.04200
Br1756     Br  0.48233093  0.35922732  0.33689984    -0.00200
C1757       C  0.47734427  0.27172523  0.51788161     0.01200
C1758       C  0.48860186  0.28245733  0.50488445     0.04000
C1759       C  0.47979462  0.29278891  0.48989886    -0.12100
C1760       C  0.45971400  0.29234464  0.48779753     0.23300
C1761       C  0.44835466  0.28281834  0.50158573    -0.12600
C1762       C  0.45717933  0.27254594  0.51668231     0.04700
C1763       C  0.45058719  0.30163106  0.47090022     0.27100
C1764       C  0.44446879  0.32086668  0.47213891    -0.13300
C1765       C  0.43512534  0.32948703  0.45642868     0.05200
C1766       C  0.43172585  0.31884025  0.43940118    -0.09300
C1767       C  0.43862945  0.29984603  0.43784220     0.06000
C1768       C  0.44798971  0.29121134  0.45364110    -0.13600
Br1769     Br  0.42076485  0.28310108  0.49912348    -0.05700
Br1770     Br  0.51624409  0.28229032  0.50716141    -0.00100
Br1771     Br  0.42705877  0.35605290  0.45830127     0.00400
Br1772     Br  0.45661204  0.26486560  0.45201742    -0.04100
Br1773     Br  0.44175969  0.25833784  0.53473542     0.00500
Br1774     Br  0.49519371  0.30691266  0.47170501    -0.03300
Br1775     Br  0.44846021  0.33515633  0.49564974    -0.04200
Br1776     Br  0.43423626  0.28532527  0.41458875    -0.00200
C1777       C  0.48484493  0.01965375  0.25788254     0.01200
C1778       C  0.49856247  0.01069580  0.27003977     0.04000
C1779       C  0.51446048  0.02100389  0.27715711    -0.12100
C1780       C  0.51614695  0.04090517  0.27373148     0.23300
C1781       C  0.50166547  0.05032559  0.26293660    -0.12600
C1782       C  0.48637074  0.03966312  0.25459735     0.04700
C1783       C  0.53233566  0.05182506  0.28298487     0.27100
C1784       C  0.53182928  0.05525436  0.30295306    -0.13300
C1785       C  0.54754466  0.06388246  0.31233641     0.05200
C1786       C  0.56361413  0.07047727  0.30178217    -0.09300
C1787       C  0.56429564  0.06692113  0.28179684     0.06000
C1788       C  0.54882623  0.05736478  0.27248027    -0.13600
Br1789     Br  0.50289871  0.07782419  0.25956617    -0.05700
Br1790     Br  0.49543752  0.98414565  0.27753483    -0.00100
Br1791     Br  0.54714095  0.06619089  0.34006457     0.00400
Br1792     Br  0.55009535  0.05193845  0.24532402    -0.04100
Br1793     Br  0.46820678  0.05228769  0.23791111     0.00500
Br1794     Br  0.53436447  0.00765873  0.29129820    -0.03300
Br1795     Br  0.50924283  0.04843183  0.31751204    -0.04200
Br1796     Br  0.58600037  0.07573756  0.26716448    -0.00200
C1797       C  0.76204024  0.02655225  0.26879482     0.01200
C1798       C  0.75212327  0.04166573  0.25950751     0.04000
C1799       C  0.73615044  0.05044850  0.26834551    -0.12100
C1800       C  0.72998089  0.04425231  0.28661737     0.23300
C1801       C  0.74061731  0.02998996  0.29644878    -0.12600
C1802       C  0.75646570  0.02102208  0.28747518     0.04700
C1803       C  0.71188508  0.05213871  0.29509678     0.27100
C1804       C  0.71230298  0.06915169  0.30608127    -0.13300
C1805       C  0.69527949  0.07642233  0.31431597     0.05200
C1806       C  0.67762846  0.06653315  0.31200019    -0.09300
C1807       C  0.67714790  0.04980653  0.30047060     0.06000
C1808       C  0.69419547  0.04268836  0.29201576    -0.13600
Br1809     Br  0.73277770  0.02210321  0.32183193    -0.05700
Br1810     Br  0.75968943  0.04934680  0.23394652    -0.00100
Br1811     Br  0.69621664  0.10049780  0.32811328     0.00400
Br1812     Br  0.69349065  0.01976206  0.27636368    -0.04100
Br1813     Br  0.76943328  0.99993043  0.29998003     0.00500
Br1814     Br  0.72196025  0.07021142  0.25496915    -0.03300
Br1815     Br  0.73639037  0.08233518  0.30997129    -0.04200
Br1816     Br  0.65336186  0.03608657  0.29700024    -0.00200
C1817       C  0.66382792  0.17125353  0.43998132     0.01200
C1818       C  0.67942260  0.16838988  0.45275549     0.04000
C1819       C  0.68837731  0.18428243  0.46172018    -0.12100
C1820       C  0.68189148  0.20316646  0.45806048     0.23300
C1821       C  0.66596804  0.20609171  0.44593413    -0.12600
C1822       C  0.65695157  0.19030295  0.43690920     0.04700
C1823       C  0.69243546  0.21996864  0.46625759     0.27100
C1824       C  0.68643929  0.22852902  0.48365263    -0.13300
C1825       C  0.69742403  0.24336721  0.49207800     0.05200
C1826       C  0.71438772  0.24975444  0.48312794    -0.09300
C1827       C  0.72000029  0.24167941  0.46541183     0.06000
C1828       C  0.70896819  0.22695302  0.45690880    -0.13600
Br1829     Br  0.65691956  0.23198978  0.44132294    -0.05700
Br1830     Br  0.68821264  0.14272345  0.45870139    -0.00100
Br1831     Br  0.68997374  0.25415893  0.51651733     0.00400
Br1832     Br  0.71681663  0.21580339  0.43274128    -0.04100
Br1833     Br  0.63594320  0.19547278  0.41939244     0.00500
Br1834     Br  0.70974250  0.18034131  0.47902616    -0.03300
Br1835     Br  0.66362901  0.21932757  0.49629459    -0.04200
Br1836     Br  0.74342712  0.25015123  0.45336407    -0.00200
C1837       C  0.51328053  0.21889236  0.24156932     0.01200
C1838       C  0.49992529  0.21210052  0.25521437     0.04000
C1839       C  0.50610358  0.20102166  0.27099722    -0.12100
C1840       C  0.52560428  0.19593819  0.27285121     0.23300
C1841       C  0.53867210  0.20116292  0.25825745    -0.12600
C1842       C  0.53256819  0.21281385  0.24276073     0.04700
C1843       C  0.53248006  0.18604124  0.29062142     0.27100
C1844       C  0.54199626  0.19657354  0.30514108    -0.13300
C1845       C  0.54947866  0.18711933  0.32150177     0.05200
C1846       C  0.54650228  0.16708632  0.32402467    -0.09300
C1847       C  0.53552805  0.15693663  0.31004739     0.06000
C1848       C  0.52918103  0.16624506  0.29318647    -0.13600
Br1849     Br  0.56522732  0.19349224  0.26031717    -0.05700
Br1850     Br  0.47326632  0.21949375  0.25307456    -0.00100
Br1851     Br  0.56505564  0.20173779  0.33931965     0.00400
Br1852     Br  0.51637616  0.15175773  0.27318979    -0.04100
Br1853     Br  0.55104223  0.22229932  0.22447903     0.00500
Br1854     Br  0.48817001  0.19435320  0.29103752    -0.03300
Br1855     Br  0.54494803  0.22407962  0.30238358    -0.04200
Br1856     Br  0.52846880  0.13027480  0.31387846    -0.00200
C1857       C  0.56166152  0.17068438  0.43510026     0.01200
C1858       C  0.55855622  0.15976793  0.45201996     0.04000
C1859       C  0.54869639  0.16782451  0.46773940    -0.12100
C1860       C  0.54156495  0.18673563  0.46666794     0.23300
C1861       C  0.54353997  0.19725728  0.44940697    -0.12600
C1862       C  0.55354185  0.18925392  0.43362831     0.04700
C1863       C  0.53249532  0.19565736  0.48392530     0.27100
C1864       C  0.51269165  0.19343085  0.48728722    -0.13300
C1865       C  0.50403677  0.20261744  0.50313664     0.05200
C1866       C  0.51515963  0.21387911  0.51590568    -0.09300
C1867       C  0.53513928  0.21522421  0.51311903     0.06000
C1868       C  0.54376778  0.20623152  0.49711083    -0.13600
Br1869     Br  0.53312153  0.22293695  0.44776259    -0.05700
Br1870     Br  0.56759997  0.13350327  0.45373513    -0.00100
Br1871     Br  0.47666658  0.20056913  0.50691835     0.00400
Br1872     Br  0.57090975  0.20918054  0.49260338    -0.04100
Br1873     Br  0.55711060  0.20421796  0.41056482     0.00500
Br1874     Br  0.54543253  0.15321470  0.49112437    -0.03300
Br1875     Br  0.49735117  0.17843152  0.46966181    -0.04200
Br1876     Br  0.55039968  0.23076647  0.53031643    -0.00200
C1877       C  0.73221446  0.98857602  0.46651594     0.01200
C1878       C  0.71203834  0.98947997  0.46486220     0.04000
C1879       C  0.70329009  0.00460860  0.45440916    -0.12100
C1880       C  0.71465301  0.01924342  0.44614062     0.23300
C1881       C  0.73476723  0.01823194  0.44768820    -0.12600
C1882       C  0.74348065  0.00270423  0.45728312     0.04700
C1883       C  0.70577894  0.03530994  0.43500214     0.27100
C1884       C  0.70652602  0.03498849  0.41478959    -0.13300
C1885       C  0.69961114  0.05069979  0.40404728     0.05200
C1886       C  0.69002450  0.06621432  0.41330806    -0.09300
C1887       C  0.68962641  0.06663837  0.43373953     0.06000
C1888       C  0.69798483  0.05148026  0.44445701    -0.13600
Br1889     Br  0.75040327  0.03857932  0.43709381    -0.05700
Br1890     Br  0.69638966  0.97067752  0.47781081    -0.00100
Br1891     Br  0.70434604  0.05099443  0.37659737     0.00400
Br1892     Br  0.69877944  0.05269922  0.47220130    -0.04100
Br1893     Br  0.77102577  0.00061601  0.45716329     0.00500
Br1894     Br  0.67575994  0.00555929  0.45167135    -0.03300
Br1895     Br  0.71678471  0.01263408  0.40178214    -0.04200
Br1896     Br  0.67687484  0.08713042  0.44751679    -0.00200
C1897       C  0.18869043  0.43393363  0.57843868     0.01200
C1898       C  0.19932157  0.43167529  0.56118391     0.04000
C1899       C  0.20810100  0.44776079  0.55233785    -0.12100
C1900       C  0.20686992  0.46619724  0.56077242     0.23300
C1901       C  0.19694675  0.46845258  0.57821575    -0.12600
C1902       C  0.18760092  0.45263329  0.58683826     0.04700
C1903       C  0.21563517  0.48332280  0.55107987     0.27100
C1904       C  0.23506931  0.48808907  0.55427042    -0.13300
C1905       C  0.24364505  0.50332043  0.54394667     0.05200
C1906       C  0.23282034  0.51410940  0.53054928    -0.09300
C1907       C  0.21311289  0.51006369  0.52822957     0.06000
C1908       C  0.20457403  0.49470560  0.53838169    -0.13600
Br1909     Br  0.19619471  0.49353439  0.59022291    -0.05700
Br1910     Br  0.20284245  0.40653509  0.54984074    -0.00100
Br1911     Br  0.27053286  0.50893865  0.54740868     0.00400
Br1912     Br  0.17793215  0.48849580  0.53409586    -0.04100
Br1913     Br  0.17229473  0.45756065  0.60952209     0.00500
Br1914     Br  0.22193031  0.44469239  0.52849694    -0.03300
Br1915     Br  0.25009060  0.47313709  0.57219534    -0.04200
Br1916     Br  0.19819837  0.52462802  0.50988714    -0.00200
C1917       C  0.05420560  0.33069150  0.68289936     0.01200
C1918       C  0.05702507  0.31068983  0.68491265     0.04000
C1919       C  0.04798624  0.30067461  0.70001976    -0.12100
C1920       C  0.03656414  0.31071035  0.71345516     0.23300
C1921       C  0.03348095  0.33059699  0.71124986    -0.12600
C1922       C  0.04196433  0.34048681  0.69583028     0.04700
C1923       C  0.02711332  0.30021841  0.72944774     0.27100
C1924       C  0.00855125  0.29278889  0.72674088    -0.13300
C1925       C  0.99983562  0.28195680  0.74135673     0.05200
C1926       C  0.00999090  0.27768030  0.75851669    -0.09300
C1927       C  0.02818317  0.28609812  0.76166702     0.06000
C1928       C  0.03659939  0.29756206  0.74720960    -0.13600
Br1929     Br  0.01810993  0.34434076  0.72981277    -0.05700
Br1930     Br  0.07446865  0.29730298  0.66801920    -0.00100
Br1931     Br  0.97388683  0.27280058  0.73762868     0.00400
Br1932     Br  0.06145471  0.30907952  0.75130690    -0.04100
Br1933     Br  0.03680314  0.36760802  0.69242253     0.00500
Br1934     Br  0.05163114  0.27327802  0.70273419    -0.03300
Br1935     Br  0.99546724  0.29675239  0.70252325    -0.04200
Br1936     Br  0.04237196  0.28074993  0.78493205    -0.00200
C1937       C  0.01912824  0.28192302  0.48974524     0.01200
C1938       C  0.03554599  0.27264853  0.49716636     0.04000
C1939       C  0.04537120  0.28051896  0.51308143    -0.12100
C1940       C  0.03852836  0.29750294  0.52185397     0.23300
C1941       C  0.02264522  0.30725243  0.51383840    -0.12600
C1942       C  0.01319376  0.29963071  0.49763022     0.04700
C1943       C  0.04820198  0.30544443  0.53922744     0.27100
C1944       C  0.04414606  0.29809116  0.55771293    -0.13300
C1945       C  0.05330125  0.30590561  0.57411422     0.05200
C1946       C  0.06613520  0.32148878  0.57209402    -0.09300
C1947       C  0.06934086  0.32937275  0.55359358     0.06000
C1948       C  0.06089870  0.32100631  0.53724067    -0.13600
Br1949     Br  0.01310033  0.33041094  0.52585530    -0.05700
Br1950     Br  0.04364851  0.24844915  0.48625956    -0.00100
Br1951     Br  0.04873992  0.29476759  0.59909892     0.00400
Br1952     Br  0.06676376  0.33081711  0.51192391    -0.04100
Br1953     Br  0.99126087  0.31276721  0.48683621     0.00500
Br1954     Br  0.06763884  0.26762485  0.52346280    -0.03300
Br1955     Br  0.02598379  0.27734133  0.56045155    -0.04200
Br1956     Br  0.08417311  0.35262238  0.55047336    -0.00200
C1957       C  0.18576758  0.43088262  0.68285721     0.01200
C1958       C  0.20229518  0.41935618  0.68560879     0.04000
C1959       C  0.21809157  0.42657406  0.69588875    -0.12100
C1960       C  0.21719968  0.44505814  0.70405829     0.23300
C1961       C  0.19998088  0.45576382  0.70309411    -0.12600
C1962       C  0.18428400  0.44875575  0.69233939     0.04700
C1963       C  0.23473426  0.45370031  0.71253032     0.27100
C1964       C  0.24010190  0.44950601  0.73161752    -0.13300
C1965       C  0.25608871  0.45872972  0.73985021     0.05200
C1966       C  0.26650931  0.47240526  0.72916598    -0.09300
C1967       C  0.26179160  0.47578408  0.70976135     0.06000
C1968       C  0.24598948  0.46633150  0.70139526    -0.13600
Br1969     Br  0.19824846  0.48026587  0.71605432    -0.05700
Br1970     Br  0.20324725  0.39341933  0.67558150    -0.00100
Br1971     Br  0.26303123  0.45378328  0.76629625     0.00400
Br1972     Br  0.23900868  0.47150294  0.67500401    -0.04100
Br1973     Br  0.16135947  0.46412261  0.68966362     0.00500
Br1974     Br  0.24129737  0.41149763  0.69814973    -0.03300
Br1975     Br  0.22478249  0.43215007  0.74681576    -0.04200
Br1976     Br  0.27579997  0.49481764  0.69531250    -0.00200
C1977       C  0.16253391  0.32766335  0.55136637     0.01200
C1978       C  0.18268683  0.32528314  0.55192816     0.04000
C1979       C  0.19136340  0.30965647  0.54221070    -0.12100
C1980       C  0.17996859  0.29596041  0.53242236     0.23300
C1981       C  0.16001732  0.29888364  0.53099932    -0.12600
C1982       C  0.15143797  0.31493206  0.53991924     0.04700
C1983       C  0.18898264  0.27845499  0.52377646     0.27100
C1984       C  0.19235655  0.27753358  0.50381886    -0.13300
C1985       C  0.20207729  0.26161984  0.49588820     0.05200
C1986       C  0.20959045  0.24704947  0.50793880    -0.09300
C1987       C  0.20542492  0.24750449  0.52779979     0.06000
C1988       C  0.19473301  0.26293291  0.53559232    -0.13600
Br1989     Br  0.14426903  0.28028140  0.51765070    -0.05700
Br1990     Br  0.19840971  0.34234692  0.56717396    -0.00100
Br1991     Br  0.20572426  0.26002866  0.46839992     0.00400
Br1992     Br  0.18867961  0.26333166  0.56266028    -0.04100
Br1993     Br  0.12429320  0.31942547  0.53629150     0.00500
Br1994     Br  0.21889882  0.30654518  0.54276585    -0.03300
Br1995     Br  0.18489987  0.29876310  0.48752319    -0.04200
Br1996     Br  0.21603565  0.22819998  0.54470758    -0.00200
C1997       C  0.07748971  0.42317438  0.70320995     0.01200
C1998       C  0.07118707  0.44223310  0.69963152     0.04000
C1999       C  0.05413231  0.44915388  0.70819807    -0.12100
C2000       C  0.04282610  0.43698580  0.71981562     0.23300
C2001       C  0.04958925  0.41840689  0.72426983    -0.12600
C2002       C  0.06710278  0.41177067  0.71653609     0.04700
C2003       C  0.02406119  0.44407321  0.72753532     0.27100
C2004       C  0.02297559  0.45143527  0.74637272    -0.13300
C2005       C  0.00622399  0.46094035  0.75256578     0.05200
C2006       C  0.99090123  0.46446017  0.73956405    -0.09300
C2007       C  0.99120895  0.45537816  0.72139401     0.06000
C2008       C  0.00764362  0.44489685  0.71556279    -0.13600
Br2009     Br  0.03447421  0.40181150  0.74051285    -0.05700
Br2010     Br  0.08493125  0.45872420  0.68210007    -0.00100
Br2011     Br  0.00467264  0.47014742  0.77877733     0.00400
Br2012     Br  0.00824573  0.43251591  0.69073787    -0.04100
Br2013     Br  0.07712802  0.38718658  0.72490967     0.00500
Br2014     Br  0.04592301  0.47535720  0.70381443    -0.03300
Br2015     Br  0.04506916  0.45000599  0.76314985    -0.04200
Br2016     Br  0.97003123  0.45867320  0.70382531    -0.00200
C2017       C  0.68101003  0.50336413  0.24931345     0.01200
C2018       C  0.67135731  0.50862226  0.23205997     0.04000
C2019       C  0.65107649  0.50818609  0.23091672    -0.12100
C2020       C  0.63999463  0.50322511  0.24709611     0.23300
C2021       C  0.64942869  0.49852861  0.26445349    -0.12600
C2022       C  0.66974734  0.49849846  0.26558861     0.04700
C2023       C  0.61842419  0.50310033  0.24586973     0.27100
C2024       C  0.60782333  0.52001765  0.24951802    -0.13300
C2025       C  0.58751616  0.51993005  0.24851190     0.05200
C2026       C  0.57744822  0.50296096  0.24334814    -0.09300
C2027       C  0.58821434  0.48601442  0.23957110     0.06000
C2028       C  0.60850247  0.48609552  0.24099208    -0.13600
Br2029     Br  0.63426801  0.49176342  0.28663718    -0.05700
Br2030     Br  0.68559392  0.51779784  0.21008201    -0.00100
Br2031     Br  0.57367520  0.54292075  0.25555592     0.00400
Br2032     Br  0.62293575  0.46286421  0.23616186    -0.04100
Br2033     Br  0.68177504  0.49088257  0.28941279     0.00500
Br2034     Br  0.63826457  0.51418971  0.20699965    -0.03300
Br2035     Br  0.62133124  0.54337065  0.25604306    -0.04200
Br2036     Br  0.57547559  0.46268271  0.23150538    -0.00200
C2037       C  0.73413389  0.41691091  0.50048056     0.01200
C2038       C  0.72551052  0.40609977  0.48559320     0.04000
C2039       C  0.72507659  0.38575067  0.48656780    -0.12100
C2040       C  0.73395067  0.37600546  0.50206525     0.23300
C2041       C  0.74229646  0.38687109  0.51707523    -0.12600
C2042       C  0.74216325  0.40719866  0.51639936     0.04700
C2043       C  0.73526786  0.35442117  0.50228697     0.27100
C2044       C  0.72099019  0.34326001  0.51132507    -0.13300
C2045       C  0.72279831  0.32299467  0.51228385     0.05200
C2046       C  0.73864520  0.31358781  0.50376108    -0.09300
C2047       C  0.75277386  0.32474470  0.49446695     0.06000
C2048       C  0.75123403  0.34504731  0.49398181    -0.13600
Br2049     Br  0.75435577  0.37377893  0.53837349    -0.05700
Br2050     Br  0.71477408  0.41923988  0.46362958    -0.00100
Br2051     Br  0.70393931  0.30813606  0.52603303     0.00400
Br2052     Br  0.77111194  0.36017990  0.48207136    -0.04100
Br2053     Br  0.75339118  0.42185041  0.53712658     0.00500
Br2054     Br  0.71238616  0.37113420  0.46668452    -0.03300
Br2055     Br  0.69896257  0.35585236  0.52243090    -0.04200
Br2056     Br  0.77387434  0.31214380  0.48170036    -0.00200
C2057       C  0.82365219  0.50080951  0.74000891     0.01200
C2058       C  0.83460075  0.49040681  0.72635399     0.04000
C2059       C  0.85494870  0.49089661  0.72683252    -0.12100
C2060       C  0.86476297  0.50149092  0.74113948     0.23300
C2061       C  0.85388793  0.51193059  0.75476050    -0.12600
C2062       C  0.83352270  0.51168967  0.75415035     0.04700
C2063       C  0.88643322  0.50099968  0.74225026     0.27100
C2064       C  0.89584819  0.48672451  0.75324378    -0.13300
C2065       C  0.91616686  0.48595771  0.75419655     0.05200
C2066       C  0.92751297  0.49937596  0.74396725    -0.09300
C2067       C  0.91803175  0.51367346  0.73288913     0.06000
C2068       C  0.89768241  0.51447409  0.73208706    -0.13600
Br2069     Br  0.86703941  0.52649745  0.77439065    -0.05700
Br2070     Br  0.82180574  0.47436583  0.70764631    -0.00100
Br2071     Br  0.92832420  0.46703830  0.77049944     0.00400
Br2072     Br  0.88505366  0.53395537  0.71685996    -0.04100
Br2073     Br  0.81917430  0.52690994  0.77236997     0.00500
Br2074     Br  0.86958895  0.47677078  0.70799356    -0.03300
Br2075     Br  0.88069461  0.46812696  0.76707020    -0.04200
Br2076     Br  0.93283114  0.53174984  0.71797486    -0.00200
C2077       C  0.42950343  0.50581291  0.74825836     0.01200
C2078       C  0.41905622  0.49733972  0.73307204     0.04000
C2079       C  0.39881620  0.49754323  0.73328430    -0.12100
C2080       C  0.38889978  0.50629460  0.74865743     0.23300
C2081       C  0.39936564  0.51483432  0.76382426    -0.12600
C2082       C  0.41961349  0.51445074  0.76370416     0.04700
C2083       C  0.36750213  0.50576707  0.74924847     0.27100
C2084       C  0.35653376  0.51995386  0.73970527    -0.13300
C2085       C  0.33629470  0.51904578  0.73991109     0.05200
C2086       C  0.32693530  0.50398509  0.74971041    -0.09300
C2087       C  0.33789876  0.48998470  0.75948457     0.06000
C2088       C  0.35810832  0.49082536  0.75918854    -0.13600
Br2089     Br  0.38585821  0.52704218  0.78473564    -0.05700
Br2090     Br  0.43256138  0.48474409  0.71238513    -0.00100
Br2091     Br  0.32134442  0.53806584  0.72627403     0.00400
Br2092     Br  0.37304462  0.47142034  0.77228704    -0.04100
Br2093     Br  0.43386758  0.52586217  0.78463270     0.00500
Br2094     Br  0.38457073  0.48557456  0.71267552    -0.03300
Br2095     Br  0.36932806  0.54051740  0.72626446    -0.04200
Br2096     Br  0.32515393  0.46995760  0.77378102    -0.00200
C2097       C  0.75080094  0.92334330  0.49046873     0.01200
C2098       C  0.74172533  0.91171839  0.50439053     0.04000
C2099       C  0.74298425  0.89141904  0.50333590    -0.12100
C2100       C  0.75331425  0.88246112  0.48833123     0.23300
C2101       C  0.76207649  0.89406412  0.47419183    -0.12600
C2102       C  0.76084601  0.91438029  0.47525584     0.04700
C2103       C  0.75508473  0.86089617  0.48758901     0.27100
C2104       C  0.77002213  0.85143235  0.49759907    -0.13300
C2105       C  0.77117137  0.83108272  0.49772577     0.05200
C2106       C  0.75745278  0.81990657  0.48766545    -0.09300
C2107       C  0.74298944  0.82946357  0.47697787     0.06000
C2108       C  0.74169458  0.84979340  0.47712639    -0.13600
Br2109     Br  0.77601090  0.88199978  0.45349577    -0.05700
Br2110     Br  0.72704734  0.92365477  0.52464884    -0.00100
Br2111     Br  0.79107169  0.81860949  0.51254000     0.00400
Br2112     Br  0.72138833  0.86257049  0.46317327    -0.04100
Br2113     Br  0.77367206  0.92997940  0.45630123     0.00500
Br2114     Br  0.73057874  0.87574693  0.52250387    -0.03300
Br2115     Br  0.78876853  0.86651168  0.51141968    -0.04200
Br2116     Br  0.72544021  0.81474283  0.46128864    -0.00200
C2117       C  0.50539634  0.75001453  0.32505967     0.01200
C2118       C  0.49034425  0.75770905  0.33624838     0.04000
C2119       C  0.49156711  0.75757425  0.35651043    -0.12100
C2120       C  0.50783916  0.74976480  0.36578279     0.23300
C2121       C  0.52293903  0.74214611  0.35462221    -0.12600
C2122       C  0.52178150  0.74236643  0.33433063     0.04700
C2123       C  0.50909593  0.74991776  0.38725294     0.27100
C2124       C  0.51731444  0.76578086  0.39690816    -0.13300
C2125       C  0.51765535  0.76641020  0.41720928     0.05200
C2126       C  0.50946994  0.75135155  0.42800219    -0.09300
C2127       C  0.50140331  0.73540589  0.41836083     0.06000
C2128       C  0.50136483  0.73461031  0.39806174    -0.13600
Br2129     Br  0.54511126  0.73125238  0.36724731    -0.05700
Br2130     Br  0.46840980  0.76931979  0.32379467    -0.00100
Br2131     Br  0.52875169  0.78821415  0.43030225     0.00400
Br2132     Br  0.49051449  0.71268320  0.38494897    -0.04100
Br2133     Br  0.54242795  0.73166294  0.31924597     0.00500
Br2134     Br  0.47098961  0.76822268  0.37171023    -0.03300
Br2135     Br  0.52759786  0.78689257  0.38219738    -0.04200
Br2136     Br  0.49043929  0.71462702  0.43305579    -0.00200
C2137       C  0.49086885  0.75154132  0.92831325     0.01200
C2138       C  0.47514858  0.75803201  0.91706667     0.04000
C2139       C  0.47559752  0.75657330  0.89676098    -0.12100
C2140       C  0.49173520  0.74873172  0.88735629     0.23300
C2141       C  0.50734589  0.74206948  0.89849368    -0.12600
C2142       C  0.50692465  0.74339170  0.91881455     0.04700
C2143       C  0.49238655  0.74786962  0.86576215     0.27100
C2144       C  0.48450553  0.73203605  0.85572602    -0.13300
C2145       C  0.48466355  0.73157424  0.83536206     0.05200
C2146       C  0.49281661  0.74687548  0.82483884    -0.09300
C2147       C  0.50088760  0.76256767  0.83486742     0.06000
C2148       C  0.50059792  0.76311561  0.85519472    -0.13600
Br2149     Br  0.52931588  0.73099902  0.88574405    -0.05700
Br2150     Br  0.45325679  0.76993045  0.92922610    -0.00100
Br2151     Br  0.47346847  0.71011499  0.82180004     0.00400
Br2152     Br  0.51135645  0.78485797  0.86866518    -0.04100
Br2153     Br  0.52809092  0.73304954  0.93354922     0.00500
Br2154     Br  0.45413545  0.76554227  0.88159598    -0.03300
Br2155     Br  0.47345911  0.71102032  0.86999506    -0.04200
Br2156     Br  0.51261860  0.78322835  0.82063099    -0.00200
C2157       C  0.75169125  0.18221656  0.00549464     0.01200
C2158       C  0.73740290  0.17127617  0.01471776     0.04000
C2159       C  0.73824316  0.15097690  0.01439392    -0.12100
C2160       C  0.75346520  0.14147715  0.00493186     0.23300
C2161       C  0.76793873  0.15246424  0.99599365    -0.12600
C2162       C  0.76698349  0.17276146  0.99617332     0.04700
C2163       C  0.75397751  0.11997840  0.00396924     0.27100
C2164       C  0.76180738  0.10917079  0.01927682    -0.13300
C2165       C  0.76162881  0.08885749  0.01860628     0.05200
C2166       C  0.75405668  0.07918203  0.00242271    -0.09300
C2167       C  0.74652155  0.08999681  0.98697995     0.06000
C2168       C  0.74633874  0.11030311  0.98781575    -0.13600
Br2169     Br  0.78902657  0.13960257  0.98345229    -0.05700
Br2170     Br  0.71659477  0.18421625  0.02765430    -0.00100
Br2171     Br  0.77161023  0.07422056  0.03996313     0.00400
Br2172     Br  0.73509441  0.12497681  0.96709140    -0.04100
Br2173     Br  0.78642078  0.18770693  0.98335148     0.00500
Br2174     Br  0.71840660  0.13609973  0.02667815    -0.03300
Br2175     Br  0.77263300  0.12229914  0.04122146    -0.04200
Br2176     Br  0.73570785  0.07693685  0.96501068    -0.00200
C2177       C  0.08621071  0.00364182  0.75285609     0.01200
C2178       C  0.09639889  0.99100198  0.74070981     0.04000
C2179       C  0.11666878  0.99079586  0.74088323    -0.12100
C2180       C  0.12697093  0.00337599  0.75306082     0.23300
C2181       C  0.11677260  0.01624714  0.76501427    -0.12600
C2182       C  0.09646950  0.01627980  0.76500292     0.04700
C2183       C  0.14847755  0.00279495  0.75333908     0.27100
C2184       C  0.15827721  0.99088109  0.76657020    -0.13300
C2185       C  0.17851149  0.98947261  0.76611550     0.05200
C2186       C  0.18913774  0.99984027  0.75232797    -0.09300
C2187       C  0.17936074  0.01191892  0.73924122     0.06000
C2188       C  0.15914115  0.01348984  0.73983118    -0.13600
Br2189     Br  0.13069812  0.03379092  0.78139010    -0.05700
Br2190     Br  0.08248409  0.97357447  0.72418605    -0.00100
Br2191     Br  0.19170835  0.97290973  0.78406886     0.00400
Br2192     Br  0.14593739  0.03045807  0.72227422    -0.04100
Br2193     Br  0.08259782  0.03370537  0.78153022     0.00500
Br2194     Br  0.13045503  0.97302807  0.72464569    -0.03300
Br2195     Br  0.14385866  0.97639854  0.78524936    -0.04200
Br2196     Br  0.19376289  0.02669700  0.72079160    -0.00200
C2197       C  0.99441462  0.74060008  0.07927658     0.01200
C2198       C  0.97900275  0.73192149  0.08913863     0.04000
C2199       C  0.97884994  0.73124459  0.10949840    -0.12100
C2200       C  0.99389909  0.73965027  0.12026792     0.23300
C2201       C  0.00930496  0.74835072  0.11037495    -0.12600
C2202       C  0.00965113  0.74864248  0.09001744     0.04700
C2203       C  0.99351088  0.73950675  0.14192184     0.27100
C2204       C  0.98286637  0.75349671  0.15213035    -0.13300
C2205       C  0.98292925  0.75368915  0.17250070     0.05200
C2206       C  0.99388265  0.74010881  0.18291803    -0.09300
C2207       C  0.00437560  0.72602684  0.17274240     0.06000
C2208       C  0.00407405  0.72562340  0.15238327    -0.13600
Br2209     Br  0.02986466  0.76009578  0.12482770    -0.05700
Br2210     Br  0.95816610  0.72076183  0.07464793    -0.00100
Br2211     Br  0.96781745  0.77244225  0.18623858     0.00400
Br2212     Br  0.01815384  0.70602176  0.13872358    -0.04100
Br2213     Br  0.03091916  0.76032956  0.07676698     0.00500
Br2214     Br  0.95814476  0.71854921  0.12273041    -0.03300
Br2215     Br  0.96840983  0.77259987  0.13810310    -0.04200
Br2216     Br  0.01951566  0.70750282  0.18679486    -0.00200
C2217       C  0.24588937  0.67951067  0.49665209     0.01200
C2218       C  0.23875309  0.66869941  0.51227434     0.04000
C2219       C  0.24000734  0.64832200  0.51228246    -0.12100
C2220       C  0.24837745  0.63839944  0.49663187     0.23300
C2221       C  0.25562493  0.64924054  0.48105373    -0.12600
C2222       C  0.25434710  0.66962829  0.48105282     0.04700
C2223       C  0.24935261  0.61665286  0.49653652     0.27100
C2224       C  0.26476101  0.60687441  0.50553617    -0.13300
C2225       C  0.26525508  0.58647168  0.50610773     0.05200
C2226       C  0.25040419  0.57551684  0.49763229    -0.09300
C2227       C  0.23530568  0.58524682  0.48813130     0.06000
C2228       C  0.23472547  0.60564981  0.48766489    -0.13600
Br2229     Br  0.26727521  0.63604081  0.45965369    -0.05700
Br2230     Br  0.22718297  0.68193378  0.53371157    -0.00100
Br2231     Br  0.28641546  0.57338132  0.51836730     0.00400
Br2232     Br  0.21378583  0.61863879  0.47493484    -0.04100
Br2233     Br  0.26384047  0.68413582  0.45946710     0.00500
Br2234     Br  0.23011269  0.63385764  0.53372877    -0.03300
Br2235     Br  0.28526622  0.62154946  0.51703036    -0.04200
Br2236     Br  0.21542551  0.57048759  0.47566336    -0.00200
C2237       C  0.24719067  0.08055721  0.50354634     0.01200
C2238       C  0.26065768  0.09109820  0.49267805     0.04000
C2239       C  0.25955626  0.11142329  0.49173213    -0.12100
C2240       C  0.24498907  0.12149331  0.50166096     0.23300
C2241       C  0.23159606  0.11094048  0.51263707    -0.12600
C2242       C  0.23267368  0.09060302  0.51354491     0.04700
C2243       C  0.24383053  0.14311464  0.50054945     0.27100
C2244       C  0.25441295  0.15470376  0.51347452    -0.13300
C2245       C  0.25389529  0.17502793  0.51197692     0.05200
C2246       C  0.24259735  0.18406282  0.49768690    -0.09300
C2247       C  0.23157250  0.17248636  0.48511504     0.06000
C2248       C  0.23231940  0.15215126  0.48642501    -0.13600
Br2249     Br  0.21187356  0.12446810  0.52660236    -0.05700
Br2250     Br  0.28033445  0.07756936  0.47860556    -0.00100
Br2251     Br  0.26816003  0.19060408  0.52997616     0.00400
Br2252     Br  0.21764800  0.13653465  0.46878464    -0.04100
Br2253     Br  0.21460614  0.07644074  0.52900221     0.00500
Br2254     Br  0.27800729  0.12559770  0.47676257    -0.03300
Br2255     Br  0.26945144  0.14260340  0.53341891    -0.04200
Br2256     Br  0.21565105  0.18454256  0.46583624    -0.00200
C2257       C  0.00332333  0.74554721  0.68222122     0.01200
C2258       C  0.98761902  0.73969582  0.67077544     0.04000
C2259       C  0.98909894  0.73944376  0.65047211    -0.12100
C2260       C  0.00625177  0.74524720  0.64136493     0.23300
C2261       C  0.02199952  0.75098372  0.65285832    -0.12600
C2262       C  0.02057421  0.75102157  0.67316864     0.04700
C2263       C  0.00760783  0.74564187  0.61976425     0.27100
C2264       C  0.01405802  0.72934964  0.60948124    -0.13300
C2265       C  0.01508516  0.72969869  0.58913547     0.05200
C2266       C  0.00954855  0.74633318  0.57875378    -0.09300
C2267       C  0.00338200  0.76274196  0.58911764     0.06000
C2268       C  0.00242557  0.76237254  0.60946263    -0.13600
Br2269     Br  0.04551979  0.75887948  0.64066012    -0.05700
Br2270     Br  0.96408049  0.73192183  0.68305399    -0.00100
Br2271     Br  0.02490902  0.70756753  0.57553891     0.00400
Br2272     Br  0.99372664  0.78475469  0.62339360    -0.04100
Br2273     Br  0.04223795  0.75865139  0.68870490     0.00500
Br2274     Br  0.96763630  0.73108172  0.63503722    -0.03300
Br2275     Br  0.02142747  0.70649586  0.62341405    -0.04200
Br2276     Br  0.99530976  0.78554072  0.57547402    -0.00200
C2277       C  0.18026804  0.93578600  0.43577261     0.01200
C2278       C  0.19925339  0.93479834  0.44278045     0.04000
C2279       C  0.20711872  0.95036901  0.45325253    -0.12100
C2280       C  0.19614866  0.96717318  0.45651741     0.23300
C2281       C  0.17704580  0.96799319  0.44983984    -0.12600
C2282       C  0.16916155  0.95240675  0.43947857     0.04700
C2283       C  0.20489171  0.98421767  0.46634185     0.27100
C2284       C  0.20225146  0.98719054  0.48623984    -0.13300
C2285       C  0.21116394  0.00289260  0.49553800     0.05200
C2286       C  0.22304934  0.01556958  0.48511500    -0.09300
C2287       C  0.22528942  0.01289040  0.46513551     0.06000
C2288       C  0.21606789  0.99740486  0.45575016    -0.13600
Br2289     Br  0.16173502  0.99060051  0.45489842    -0.05700
Br2290     Br  0.21469802  0.91243342  0.43726009    -0.00100
Br2291     Br  0.20755127  0.00687180  0.52277486     0.00400
Br2292     Br  0.21929391  0.99374434  0.42843725    -0.04100
Br2293     Br  0.14302773  0.95385630  0.43038803     0.00500
Br2294     Br  0.23293375  0.94875537  0.46321797    -0.03300
Br2295     Br  0.18713608  0.96920192  0.50088635    -0.04200
Br2296     Br  0.24227353  0.02950837  0.45092967    -0.00200
C2297       C  0.02930935  0.77346706  0.51514414     0.01200
C2298       C  0.04840996  0.76977745  0.50961817     0.04000
C2299       C  0.05628059  0.77913766  0.49344114    -0.12100
C2300       C  0.04495749  0.79197814  0.48249382     0.23300
C2301       C  0.02624555  0.79653637  0.48870786    -0.12600
C2302       C  0.01847626  0.78733328  0.50498800     0.04700
C2303       C  0.05278862  0.80082448  0.46458632     0.27100
C2304       C  0.06197217  0.81877945  0.46554918    -0.13300
C2305       C  0.06971786  0.82710759  0.44883455     0.05200
C2306       C  0.06877307  0.81738678  0.43089120    -0.09300
C2307       C  0.05928123  0.79947944  0.42989866     0.06000
C2308       C  0.05118149  0.79131363  0.44667194    -0.13600
Br2309     Br  0.01102830  0.81483497  0.47439989    -0.05700
Br2310     Br  0.06320503  0.75074509  0.52335525    -0.00100
Br2311     Br  0.08121054  0.85222437  0.45085680     0.00400
Br2312     Br  0.03813219  0.76689911  0.44531961    -0.04100
Br2313     Br  0.99252433  0.79290238  0.51290155     0.00500
Br2314     Br  0.08236208  0.77392186  0.48578970    -0.03300
Br2315     Br  0.06419394  0.83179094  0.49004513    -0.04200
Br2316     Br  0.05843559  0.78557117  0.40591461    -0.00200
C2317       C  0.02164814  0.76600081  0.24389292     0.01200
C2318       C  0.03267241  0.75768067  0.25887391     0.04000
C2319       C  0.04149189  0.76939054  0.27286028    -0.12100
C2320       C  0.04013623  0.78958005  0.27157510     0.23300
C2321       C  0.03070167  0.79795847  0.25562230    -0.12600
C2322       C  0.02121459  0.78622293  0.24196610     0.04700
C2323       C  0.04824517  0.80184221  0.28728079     0.27100
C2324       C  0.03611011  0.80967044  0.30156856    -0.13300
C2325       C  0.04379449  0.82120560  0.31647237     0.05200
C2326       C  0.06372897  0.82445010  0.31754358    -0.09300
C2327       C  0.07590532  0.81596802  0.30364773     0.06000
C2328       C  0.06817596  0.80507242  0.28838930    -0.13600
Br2329     Br  0.03032619  0.82557485  0.25289597    -0.05700
Br2330     Br  0.03569361  0.73004980  0.26036163    -0.00100
Br2331     Br  0.02697498  0.83345713  0.33473790     0.00400
Br2332     Br  0.08484633  0.79489707  0.26868117    -0.04100
Br2333     Br  0.00641256  0.79796503  0.22163187     0.00500
Br2334     Br  0.05465780  0.75772685  0.29439832    -0.03300
Br2335     Br  0.00890525  0.80463375  0.30058693    -0.04200
Br2336     Br  0.10339568  0.81899641  0.30568316    -0.00200
C2337       C  0.16103323  0.82548956  0.45278145     0.01200
C2338       C  0.14935844  0.81047039  0.46011636     0.04000
C2339       C  0.15753900  0.79284390  0.46583681    -0.12100
C2340       C  0.17761639  0.79079133  0.46673310     0.23300
C2341       C  0.18936201  0.80675725  0.46219396    -0.12600
C2342       C  0.18116678  0.82384417  0.45465228     0.04700
C2343       C  0.18640737  0.77191389  0.47231418     0.27100
C2344       C  0.18649686  0.76592779  0.49171973    -0.13300
C2345       C  0.19689853  0.74940097  0.49724336     0.05200
C2346       C  0.20766097  0.73899724  0.48359099    -0.09300
C2347       C  0.20609993  0.74388222  0.46397415     0.06000
C2348       C  0.19536898  0.76020169  0.45831313    -0.13600
Br2349     Br  0.21679127  0.80484145  0.46567241    -0.05700
Br2350     Br  0.12187524  0.81390150  0.46218413    -0.00100
Br2351     Br  0.19782602  0.74168643  0.52388213     0.00400
Br2352     Br  0.19379893  0.76715848  0.43148830    -0.04100
Br2353     Br  0.19765411  0.84419478  0.44571723     0.00500
Br2354     Br  0.14116524  0.77102075  0.47089292    -0.03300
Br2355     Br  0.17369121  0.78118707  0.51102993    -0.04200
Br2356     Br  0.22018607  0.72920622  0.44514647    -0.00200
C2357       C  0.32941713  0.94222878  0.66751350     0.01200
C2358       C  0.33214205  0.95329882  0.68443879     0.04000
C2359       C  0.31618933  0.96095065  0.69439905    -0.12100
C2360       C  0.29737810  0.95789099  0.68752276     0.23300
C2361       C  0.29456226  0.94775911  0.67025412    -0.12600
C2362       C  0.31035570  0.93992566  0.66026005     0.04700
C2363       C  0.28050579  0.96474755  0.69884248     0.27100
C2364       C  0.27318181  0.95333526  0.71390631    -0.13300
C2365       C  0.25848157  0.96052110  0.72584686     0.05200
C2366       C  0.25066028  0.97894150  0.72248915    -0.09300
C2367       C  0.25714339  0.98982916  0.70668846     0.06000
C2368       C  0.27205503  0.98278857  0.69491747    -0.13600
Br2369     Br  0.26871358  0.94414885  0.66070450    -0.05700
Br2370     Br  0.35766300  0.95884420  0.69380182    -0.00100
Br2371     Br  0.24979938  0.94567358  0.74756958     0.00400
Br2372     Br  0.28152402  0.99816756  0.67391696    -0.04100
Br2373     Br  0.30488190  0.92511988  0.63726561     0.00500
Br2374     Br  0.31993892  0.97554161  0.71775295    -0.03300
Br2375     Br  0.28382000  0.92809834  0.71850669    -0.04200
Br2376     Br  0.24635690  0.01496551  0.70198922    -0.00200
C2377       C  0.27987339  0.02038884  0.52475835     0.01200
C2378       C  0.28041775  0.01869766  0.54495802     0.04000
C2379       C  0.29183637  0.00429901  0.55363786    -0.12100
C2380       C  0.30137382  0.99054166  0.54210117     0.23300
C2381       C  0.30187635  0.99310756  0.52197560    -0.12600
C2382       C  0.29164771  0.00836719  0.51344440     0.04700
C2383       C  0.30898294  0.97243022  0.55083400     0.27100
C2384       C  0.32891400  0.96912626  0.55218099    -0.13300
C2385       C  0.33582992  0.95163653  0.55973307     0.05200
C2386       C  0.32299424  0.93792233  0.56737798    -0.09300
C2387       C  0.30310195  0.94125826  0.56624411     0.06000
C2388       C  0.29609266  0.95818175  0.55746833    -0.13600
Br2389     Br  0.31513932  0.97480975  0.50583693    -0.05700
Br2390     Br  0.26378425  0.03444142  0.56054514    -0.00100
Br2391     Br  0.36308278  0.94646045  0.55990517     0.00400
Br2392     Br  0.26874837  0.96202128  0.55493087    -0.04100
Br2393     Br  0.29271904  0.01219031  0.48595104     0.00500
Br2394     Br  0.29369740  0.00270659  0.58129316    -0.03300
Br2395     Br  0.34677472  0.98900590  0.54482662    -0.04200
Br2396     Br  0.28558846  0.92337831  0.57804980    -0.00200
C2397       C  0.41681704  0.79754812  0.56593192     0.01200
C2398       C  0.43707376  0.79844844  0.56537704     0.04000
C2399       C  0.44712321  0.79008973  0.54987206    -0.12100
C2400       C  0.43702530  0.78109937  0.53470982     0.23300
C2401       C  0.41696976  0.77911609  0.53583538    -0.12600
C2402       C  0.40693316  0.78700182  0.55154225     0.04700
C2403       C  0.44763016  0.77407905  0.51751252     0.27100
C2404       C  0.45276494  0.78703481  0.50275966    -0.13300
C2405       C  0.46556850  0.78121651  0.48817109     0.05200
C2406       C  0.47306112  0.76236556  0.48823124    -0.09300
C2407       C  0.46637462  0.74893828  0.50187977     0.06000
C2408       C  0.45382758  0.75481107  0.51658177    -0.13600
Br2409     Br  0.40321145  0.76638501  0.51533097    -0.05700
Br2410     Br  0.45111803  0.81253263  0.58477896    -0.00100
Br2411     Br  0.47420598  0.79951884  0.46924447     0.00400
Br2412     Br  0.44613593  0.73682482  0.53621810    -0.04100
Br2413     Br  0.37947666  0.78344062  0.55322151     0.00500
Br2414     Br  0.47477844  0.79165259  0.54883471    -0.03300
Br2415     Br  0.44311120  0.81306403  0.50330041    -0.04200
Br2416     Br  0.47520064  0.72259321  0.50087014    -0.00200
C2417       C  0.42957730  0.81150820  0.67611427     0.01200
C2418       C  0.41897951  0.81230273  0.69341513     0.04000
C2419       C  0.42586974  0.80321801  0.71014673    -0.12100
C2420       C  0.44322092  0.79287118  0.70969468     0.23300
C2421       C  0.45342084  0.79123240  0.69222034    -0.12600
C2422       C  0.44665417  0.80060847  0.67546887     0.04700
C2423       C  0.45096842  0.78432442  0.72778934     0.27100
C2424       C  0.46423440  0.79474735  0.73906431    -0.13300
C2425       C  0.47224392  0.78639581  0.75573189     0.05200
C2426       C  0.46709182  0.76757304  0.76120002    -0.09300
C2427       C  0.45292080  0.75766248  0.75061847     0.06000
C2428       C  0.44487782  0.76598970  0.73394157    -0.13600
Br2429     Br  0.47685332  0.77644622  0.69145672    -0.05700
Br2430     Br  0.39462546  0.82542883  0.69425744    -0.00100
Br2431     Br  0.49128681  0.80019226  0.77043344     0.00400
Br2432     Br  0.42623718  0.75195053  0.71894377    -0.04100
Br2433     Br  0.46115049  0.79926947  0.65192115     0.00500
Br2434     Br  0.41179316  0.80530746  0.73395798    -0.03300
Br2435     Br  0.47207643  0.82013429  0.73109302    -0.04200
Br2436     Br  0.44535270  0.73220672  0.75856961    -0.00200
C2437       C  0.32212615  0.82685626  0.54958795     0.01200
C2438       C  0.33052061  0.81648906  0.53417607     0.04000
C2439       C  0.32110810  0.80038066  0.52610016    -0.12100
C2440       C  0.30278613  0.79486525  0.53267889     0.23300
C2441       C  0.29384134  0.80587289  0.54721909    -0.12600
C2442       C  0.30356778  0.82151562  0.55590646     0.04700
C2443       C  0.29279103  0.77772567  0.52410955     0.27100
C2444       C  0.28407307  0.77910186  0.50585022    -0.13300
C2445       C  0.27434469  0.76317516  0.49789515     0.05200
C2446       C  0.27168986  0.74609714  0.50877119    -0.09300
C2447       C  0.28082251  0.74455705  0.52689556     0.06000
C2448       C  0.29175566  0.76011724  0.53424787    -0.13600
Br2449     Br  0.26819104  0.79931673  0.55533500    -0.05700
Br2450     Br  0.35476168  0.82466306  0.52352298    -0.00100
Br2451     Br  0.26487066  0.76488074  0.47174771     0.00400
Br2452     Br  0.30495435  0.75759941  0.55854330    -0.04100
Br2453     Br  0.29185086  0.83450664  0.57745785     0.00500
Br2454     Br  0.33356455  0.78546653  0.50627119    -0.03300
Br2455     Br  0.28447804  0.80328141  0.49215522    -0.04200
Br2456     Br  0.27720286  0.72189754  0.54245118    -0.00200
C2457       C  0.98920950  0.25798563  0.42929831     0.01200
C2458       C  0.97633261  0.26934860  0.41845050     0.04000
C2459       C  0.97655402  0.26862643  0.39808666    -0.12100
C2460       C  0.98927739  0.25607816  0.38837666     0.23300
C2461       C  0.00170088  0.24427313  0.39931749    -0.12600
C2462       C  0.00188532  0.24545945  0.41962087     0.04700
C2463       C  0.98976383  0.25526903  0.36674908     0.27100
C2464       C  0.97588546  0.24460282  0.35643327    -0.13300
C2465       C  0.97662328  0.24352167  0.33611868     0.05200
C2466       C  0.99141227  0.25284020  0.32585094    -0.09300
C2467       C  0.00537444  0.26338738  0.33615874     0.06000
C2468       C  0.00447219  0.26471442  0.35646085    -0.13600
Br2469     Br  0.01829943  0.22620225  0.38639284    -0.05700
Br2470     Br  0.95858080  0.28610064  0.43159731    -0.00100
Br2471     Br  0.95753019  0.22887897  0.32229326     0.00400
Br2472     Br  0.02315991  0.27988654  0.37025838    -0.04100
Br2473     Br  0.01941606  0.22972932  0.43430986     0.00500
Br2474     Br  0.95964358  0.28505851  0.38344382    -0.03300
Br2475     Br  0.95588627  0.23135177  0.37022858    -0.04200
Br2476     Br  0.02529588  0.27674489  0.32235534    -0.00200
C2477       C  0.01978635  0.23593937  0.26169928     0.01200
C2478       C  0.02918126  0.24773986  0.24805048     0.04000
C2479       C  0.03911820  0.23950090  0.23244633    -0.12100
C2480       C  0.04009441  0.21937449  0.23047228     0.23300
C2481       C  0.03171136  0.20752417  0.24464160    -0.12600
C2482       C  0.02142153  0.21576515  0.26010243     0.04700
C2483       C  0.04961907  0.21063161  0.21334358     0.27100
C2484       C  0.03911337  0.20726005  0.19625766    -0.13300
C2485       C  0.04764362  0.19731581  0.18072279     0.05200
C2486       C  0.06675708  0.19074830  0.18221328    -0.09300
C2487       C  0.07765680  0.19547633  0.19877772     0.06000
C2488       C  0.06910292  0.20533299  0.21426413    -0.13600
Br2489     Br  0.03357743  0.17992901  0.24222630    -0.05700
Br2490     Br  0.02801578  0.27539185  0.25033761    -0.00100
Br2491     Br  0.03276409  0.19165317  0.15798848     0.00400
Br2492     Br  0.08393441  0.21136728  0.23697310    -0.04100
Br2493     Br  0.00805490  0.19940930  0.27798448     0.00500
Br2494     Br  0.05068746  0.25573730  0.21317324    -0.03300
Br2495     Br  0.01285329  0.21590039  0.19442518    -0.04200
Br2496     Br  0.10451639  0.18861175  0.20025040    -0.00200
C2497       C  0.99090665  0.25172494  0.92496007     0.01200
C2498       C  0.00530130  0.26176069  0.91475152     0.04000
C2499       C  0.00576094  0.26124992  0.89439839    -0.12100
C2500       C  0.99201020  0.25051913  0.88400254     0.23300
C2501       C  0.97770189  0.24042984  0.89416732    -0.12600
C2502       C  0.97716595  0.24098577  0.91450038     0.04700
C2503       C  0.99291089  0.24936728  0.86244449     0.27100
C2504       C  0.98348491  0.26318855  0.85093631    -0.13300
C2505       C  0.98436778  0.26207199  0.83062861     0.05200
C2506       C  0.99470808  0.24703673  0.82153388    -0.09300
C2507       C  0.00402773  0.23312238  0.83314518     0.06000
C2508       C  0.00311819  0.23431294  0.85343962    -0.13600
Br2509     Br  0.95897839  0.22557064  0.88008342    -0.05700
Br2510     Br  0.02428164  0.27652708  0.92858674    -0.00100
Br2511     Br  0.97055817  0.28078039  0.81539157     0.00400
Br2512     Br  0.01602738  0.21536095  0.86910996    -0.04100
Br2513     Br  0.95830378  0.22592214  0.92805678     0.00500
Br2514     Br  0.02529213  0.27519449  0.88059961    -0.03300
Br2515     Br  0.96918776  0.28359551  0.86316010    -0.04200
Br2516     Br  0.01897423  0.21287033  0.82142869    -0.00200
C2517       C  0.07346849  0.20333055  0.07007793     0.01200
C2518       C  0.07657639  0.19588611  0.05129720     0.04000
C2519       C  0.06766092  0.20429464  0.03524333    -0.12100
C2520       C  0.05368039  0.21863066  0.03776595     0.23300
C2521       C  0.04985466  0.22571288  0.05643640    -0.12600
C2522       C  0.06020881  0.21857050  0.07247429     0.04700
C2523       C  0.04215320  0.22491529  0.02080332     0.27100
C2524       C  0.04576358  0.24273206  0.01179049    -0.13300
C2525       C  0.03469823  0.24844292  0.99575736     0.05200
C2526       C  0.02051806  0.23609088  0.98823992    -0.09300
C2527       C  0.01785524  0.21776522  0.99641227     0.06000
C2528       C  0.02826941  0.21235728  0.01291479    -0.13600
Br2529     Br  0.03005961  0.24480635  0.06002819    -0.05700
Br2530     Br  0.09088485  0.17247820  0.04713812    -0.00100
Br2531     Br  0.03810928  0.27361669  0.98465076     0.00400
Br2532     Br  0.02287176  0.18806187  0.02524708    -0.04100
Br2533     Br  0.05648613  0.23004872  0.09745859     0.00500
Br2534     Br  0.07428253  0.19585615  0.00954788    -0.03300
Br2535     Br  0.06555122  0.25944121  0.02167119    -0.04200
Br2536     Br  0.99935917  0.20036234  0.98523784    -0.00200
C2537       C  0.31685252  0.99623379  0.23354997     0.01200
C2538       C  0.32657681  0.98816977  0.21757380     0.04000
C2539       C  0.34694641  0.98860898  0.21650854    -0.12100
C2540       C  0.35796132  0.99715195  0.23134595     0.23300
C2541       C  0.34822657  0.00577088  0.24694684    -0.12600
C2542       C  0.32790088  0.00534117  0.24804125     0.04700
C2543       C  0.37969259  0.99636247  0.23115649     0.27100
C2544       C  0.38947464  0.98123059  0.24059387    -0.13300
C2545       C  0.40980778  0.98095758  0.24161529     0.05200
C2546       C  0.42080754  0.99581818  0.23318106    -0.09300
C2547       C  0.41105563  0.01056812  0.22307932     0.06000
C2548       C  0.39067155  0.01090030  0.22216799    -0.13600
Br2549     Br  0.36294061  0.01821873  0.26692465    -0.05700
Br2550     Br  0.31205598  0.97569830  0.19746490    -0.00100
Br2551     Br  0.42260333  0.96024569  0.25495951     0.00400
Br2552     Br  0.37767514  0.03117724  0.20840565    -0.04100
Br2553     Br  0.31514474  0.01804514  0.26912028     0.00500
Br2554     Br  0.35991531  0.97724501  0.19481527    -0.03300
Br2555     Br  0.37483455  0.96071613  0.25207990    -0.04200
Br2556     Br  0.42570645  0.02972384  0.20951819    -0.00200
C2557       C  0.25751061  0.97508815  0.26824615     0.01200
C2558       C  0.24967148  0.95666068  0.26493817     0.04000
C2559       C  0.23488856  0.94951209  0.27683612    -0.12100
C2560       C  0.22821181  0.96048989  0.29258957     0.23300
C2561       C  0.23700102  0.97834727  0.29666309    -0.12600
C2562       C  0.25126771  0.98577846  0.28431750     0.04700
C2563       C  0.21214785  0.95323187  0.30497794     0.27100
C2564       C  0.19328395  0.96048631  0.30286008    -0.13300
C2565       C  0.17834113  0.95414777  0.31511830     0.05200
C2566       C  0.18198515  0.94001909  0.32933131    -0.09300
C2567       C  0.20086805  0.93229671  0.33087204     0.06000
C2568       C  0.21582423  0.93917857  0.31908448    -0.13600
Br2569     Br  0.22908060  0.99284526  0.31894804    -0.05700
Br2570     Br  0.25873656  0.94159620  0.24347805    -0.00100
Br2571     Br  0.15322541  0.96568977  0.31296491     0.00400
Br2572     Br  0.24165090  0.92949718  0.32237478    -0.04100
Br2573     Br  0.26141542  0.01122136  0.28861512     0.00500
Br2574     Br  0.22309557  0.92508634  0.27098062    -0.03300
Br2575     Br  0.18799629  0.97919343  0.28304048    -0.04200
Br2576     Br  0.20654041  0.91131794  0.34831156    -0.00200
C2577       C  0.25050783  0.01137583  0.20937180     0.01200
C2578       C  0.25128472  0.03120572  0.20494454     0.04000
C2579       C  0.23578137  0.04016160  0.19525868    -0.12100
C2580       C  0.21919668  0.02952538  0.19036946     0.23300
C2581       C  0.21864009  0.00966006  0.19426919    -0.12600
C2582       C  0.23439243  0.00054835  0.20318938     0.04700
C2583       C  0.20255024  0.03912474  0.18070367     0.27100
C2584       C  0.18938681  0.05024659  0.19142672    -0.13300
C2585       C  0.17464757  0.06063590  0.18200845     0.05200
C2586       C  0.17286474  0.05977219  0.16173754    -0.09300
C2587       C  0.18509037  0.04727214  0.15127748     0.06000
C2588       C  0.20000227  0.03726396  0.16067540    -0.13600
Br2589     Br  0.19586871  0.99506030  0.18804785    -0.05700
Br2590     Br  0.27289001  0.04648723  0.21316754    -0.00100
Br2591     Br  0.15791801  0.07699379  0.19694790     0.00400
Br2592     Br  0.21748818  0.02149532  0.14596501    -0.04100
Br2593     Br  0.23390545  0.97295648  0.20652074     0.00500
Br2594     Br  0.23693080  0.06720696  0.18909122    -0.03300
Br2595     Br  0.19199102  0.05163440  0.21904217    -0.04200
Br2596     Br  0.18136779  0.04352804  0.12393059    -0.00200
C2597       C  0.23558539  0.92705658  0.00069338     0.01200
C2598       C  0.22625830  0.91652632  0.98604004     0.04000
C2599       C  0.22628123  0.89615967  0.98632644    -0.12100
C2600       C  0.23552442  0.88605380  0.00135647     0.23300
C2601       C  0.24457972  0.89661379  0.01620785    -0.12600
C2602       C  0.24467870  0.91699502  0.01582626     0.04700
C2603       C  0.23611915  0.86439707  0.00125687     0.27100
C2604       C  0.22123486  0.85355823  0.00973483    -0.13300
C2605       C  0.22192149  0.83317746  0.00965657     0.05200
C2606       C  0.23747152  0.82337322  0.00105280    -0.09300
C2607       C  0.25217439  0.83422177  0.99229620     0.06000
C2608       C  0.25153391  0.85458104  0.99244421    -0.13600
Br2609     Br  0.25685875  0.88305139  0.03707837    -0.05700
Br2610     Br  0.21359007  0.93013034  0.96543112    -0.00100
Br2611     Br  0.20177859  0.81865346  0.02180432     0.00400
Br2612     Br  0.27179642  0.86916720  0.98051658    -0.04100
Br2613     Br  0.25727430  0.93125019  0.03603955     0.00500
Br2614     Br  0.21377594  0.88197495  0.96601397    -0.03300
Br2615     Br  0.19995206  0.86675594  0.02156945    -0.04200
Br2616     Br  0.27298160  0.82110676  0.97957242    -0.00200
C2617       C  0.17574312  0.07729327  0.06238177     0.01200
C2618       C  0.16181994  0.06688924  0.05187257     0.04000
C2619       C  0.16663055  0.04923863  0.04311061    -0.12100
C2620       C  0.18562068  0.04225428  0.04403343     0.23300
C2621       C  0.19968651  0.05292133  0.05412617    -0.12600
C2622       C  0.19462368  0.07010195  0.06371415     0.04700
C2623       C  0.19096703  0.02401691  0.03398676     0.27100
C2624       C  0.19454798  0.00700532  0.04453577    -0.13300
C2625       C  0.20260282  0.99073602  0.03534796     0.05200
C2626       C  0.20628014  0.99116869  0.01538459    -0.09300
C2627       C  0.20007426  0.00724908  0.00454873     0.06000
C2628       C  0.19322523  0.02387119  0.01385001    -0.13600
Br2629     Br  0.22595780  0.04406757  0.05464384    -0.05700
Br2630     Br  0.13580752  0.07633298  0.05022642    -0.00100
Br2631     Br  0.21014212  0.96873131  0.05046623     0.00400
Br2632     Br  0.18853350  0.04697516  0.99912210    -0.04100
Br2633     Br  0.21348093  0.08380283  0.07875905     0.00500
Br2634     Br  0.14705918  0.03423958  0.03035357    -0.03300
Br2635     Br  0.18930544  0.00646447  0.07176940    -0.04200
Br2636     Br  0.20177183  0.00675045  0.97679910    -0.00200
C2637       C  0.26342856  0.32079415  0.99466118     0.01200
C2638       C  0.27008176  0.33126685  0.01074619     0.04000
C2639       C  0.27084357  0.35162249  0.01022828    -0.12100
C2640       C  0.26507901  0.36174977  0.99355830     0.23300
C2641       C  0.25897591  0.35120820  0.97726049    -0.12600
C2642       C  0.25802992  0.33086749  0.97786134     0.04700
C2643       C  0.26435165  0.38340718  0.99354659     0.27100
C2644       C  0.24716742  0.39301531  0.99841588    -0.13300
C2645       C  0.24629217  0.41335267  0.99855613     0.05200
C2646       C  0.26248002  0.42443920  0.99339906    -0.09300
C2647       C  0.27967339  0.41482830  0.98841269     0.06000
C2648       C  0.28066143  0.39444379  0.98871741    -0.13600
Br2649     Br  0.25165481  0.36475787  0.95417502    -0.05700
Br2650     Br  0.27745153  0.31765045  0.03377113    -0.00100
Br2651     Br  0.22300287  0.42605018  0.00662363     0.00400
Br2652     Br  0.30432584  0.38150670  0.98241502    -0.04100
Br2653     Br  0.24917379  0.31668502  0.95568925     0.00500
Br2654     Br  0.27931960  0.36576913  0.03254915    -0.03300
Br2655     Br  0.22472769  0.37815752  0.00490732    -0.04200
Br2656     Br  0.30158651  0.42955111  0.98013742    -0.00200
C2657       C  0.22275418  0.26256034  0.00396918     0.01200
C2658       C  0.21390231  0.26532141  0.02200729     0.04000
C2659       C  0.20159920  0.25102704  0.02944986    -0.12100
C2660       C  0.19830468  0.23391058  0.01899905     0.23300
C2661       C  0.20561513  0.23204195  0.00025285    -0.12600
C2662       C  0.21751150  0.24646392  0.99263645     0.04700
C2663       C  0.18787716  0.21755389  0.02800082     0.27100
C2664       C  0.19792411  0.20390822  0.03922019    -0.13300
C2665       C  0.18792290  0.18897041  0.04862318     0.05200
C2666       C  0.16773553  0.18784920  0.04714346    -0.09300
C2667       C  0.15795211  0.20087335  0.03487236     0.06000
C2668       C  0.16798275  0.21559092  0.02531670    -0.13600
Br2669     Br  0.20039121  0.20903775  0.98557232    -0.05700
Br2670     Br  0.22000634  0.28761731  0.03738437    -0.00100
Br2671     Br  0.20183007  0.17087074  0.06442829     0.00400
Br2672     Br  0.15447254  0.23347980  0.00886697    -0.04100
Br2673     Br  0.22763268  0.24361037  0.96692834     0.00500
Br2674     Br  0.19016073  0.25421890  0.05449046    -0.03300
Br2675     Br  0.22536857  0.20622107  0.04220853    -0.04200
Br2676     Br  0.13069095  0.19866794  0.03093326    -0.00200
C2677       C  0.82502987  0.00107548  0.24523334     0.01200
C2678       C  0.83535105  0.99597851  0.26205456     0.04000
C2679       C  0.85571049  0.99555733  0.26206670    -0.12100
C2680       C  0.86612293  0.00076464  0.24544304     0.23300
C2681       C  0.85584826  0.00604740  0.22871220    -0.12600
C2682       C  0.83551783  0.00592063  0.22850859     0.04700
C2683       C  0.88779481  0.00076883  0.24544440     0.27100
C2684       C  0.89814604  0.01607920  0.25394713    -0.13300
C2685       C  0.91847459  0.01641271  0.25334290     0.05200
C2686       C  0.92878234  0.00157118  0.24400448    -0.09300
C2687       C  0.91843201  0.98632490  0.23541092     0.06000
C2688       C  0.89812760  0.98578981  0.23635256    -0.13600
Br2689     Br  0.86977950  0.01388114  0.20606252    -0.05700
Br2690     Br  0.82162963  0.98876548  0.28498902    -0.00100
Br2691     Br  0.93225091  0.03698488  0.26589143     0.00400
Br2692     Br  0.88436797  0.96439665  0.22525147    -0.04100
Br2693     Br  0.82217053  0.01317455  0.20531992     0.00500
Br2694     Br  0.86944912  0.98743400  0.28479385    -0.03300
Br2695     Br  0.88438488  0.03674635  0.26634361    -0.04200
Br2696     Br  0.93204838  0.96665236  0.22136533    -0.00200
C2697       C  0.99233911  0.97450848  0.26311176     0.01200
C2698       C  0.00096970  0.98062498  0.28042698     0.04000
C2699       C  0.01651185  0.97030457  0.28834360    -0.12100
C2700       C  0.02349287  0.95363859  0.27909750     0.23300
C2701       C  0.01418610  0.94689375  0.26231757    -0.12600
C2702       C  0.99871147  0.95738156  0.25428760     0.04700
C2703       C  0.04021301  0.94306192  0.28756189     0.27100
C2704       C  0.05921866  0.94834921  0.28298623    -0.13300
C2705       C  0.07497013  0.93960496  0.29251067     0.05200
C2706       C  0.07184365  0.92552464  0.30686435    -0.09300
C2707       C  0.05260483  0.92015770  0.31119159     0.06000
C2708       C  0.03701653  0.92872040  0.30141761    -0.13600
Br2709     Br  0.02302248  0.92359878  0.25012590    -0.05700
Br2710     Br  0.99175912  0.00362478  0.29296663    -0.00100
Br2711     Br  0.10075421  0.94657937  0.28530232     0.00400
Br2712     Br  0.01095949  0.92120260  0.30726181    -0.04100
Br2713     Br  0.98672347  0.94886542  0.23075286     0.00500
Br2714     Br  0.02868931  0.97930356  0.31163154    -0.03300
Br2715     Br  0.06352522  0.96775760  0.26366131    -0.04200
Br2716     Br  0.04687451  0.90210961  0.33153094    -0.00200
C2717       C  0.99044077  0.03220642  0.22447457     0.01200
C2718       C  0.99713848  0.02948274  0.20555826     0.04000
C2719       C  0.01199137  0.04114982  0.19826689    -0.12100
C2720       C  0.02009314  0.05581349  0.20979590     0.23300
C2721       C  0.01260068  0.05925467  0.22832234    -0.12600
C2722       C  0.99804516  0.04729217  0.23573566    -0.02500
C2723       C  0.03669446  0.06727600  0.20251525     0.27100
C2724       C  0.05560673  0.06291403  0.20849480    -0.13300
C2725       C  0.07137833  0.07292408  0.20061753     0.05200
C2726       C  0.06839072  0.08728143  0.18653934    -0.09300
C2727       C  0.04933460  0.09195405  0.18098027     0.06000
C2728       C  0.03362648  0.08211405  0.18907265    -0.13600
Br2729     Br  0.02273317  0.08001798  0.24372493    -0.05700
Br2730     Br  0.98668684  0.00891881  0.19011136    -0.00100
Br2731     Br  0.09702178  0.06735796  0.20963594     0.00400
Br2732     Br  0.00771844  0.08870496  0.18154498    -0.04100
Br2733     Br  0.98927694  0.05076329  0.26179823     0.00500
Br2734     Br  0.02192983  0.03642329  0.17280129    -0.03300
Br2735     Br  0.05989779  0.04295383  0.22731867    -0.04200
Br2736     Br  0.04437794  0.11090518  0.16125796    -0.00200
C2737       C  0.68440754  0.98672879  0.74734898     0.01200
C2738       C  0.67487758  0.00027683  0.75914432     0.04000
C2739       C  0.65452789  0.00105221  0.75969889    -0.12100
C2740       C  0.64333566  0.98840364  0.74833954     0.23300
C2741       C  0.65288469  0.97470372  0.73672320    -0.12600
C2742       C  0.67323440  0.97380837  0.73630748     0.04700
C2743       C  0.62162040  0.98937448  0.74869609     0.27100
C2744       C  0.61107289  0.97907612  0.76264463    -0.13300
C2745       C  0.59072039  0.97989624  0.76292668     0.05200
C2746       C  0.58050896  0.99079811  0.74910691    -0.09300
C2747       C  0.59103306  0.00111099  0.73515775     0.06000
C2748       C  0.61141671  0.00051750  0.73503672    -0.13600
Br2749     Br  0.63793959  0.95699029  0.72148319    -0.05700
Br2750     Br  0.68980043  0.01822672  0.77416401    -0.00100
Br2751     Br  0.57668327  0.96601067  0.78232144     0.00400
Br2752     Br  0.62551785  0.01529076  0.71636032    -0.04100
Br2753     Br  0.68588594  0.95426498  0.72123028     0.00500
Br2754     Br  0.64187480  0.01948786  0.77608475    -0.03300
Br2755     Br  0.62464474  0.96386334  0.78147273    -0.04200
Br2756     Br  0.57743227  0.01640436  0.71643221    -0.00200
C2757       C  0.43708130  0.91584727  0.68544590     0.01200
C2758       C  0.43907955  0.91624646  0.70563743     0.04000
C2759       C  0.45432818  0.92661717  0.71428850    -0.12100
C2760       C  0.46781364  0.93648550  0.70277888     0.23300
C2761       C  0.46570176  0.93615407  0.68260464    -0.12600
C2762       C  0.45050283  0.92584981  0.67400410     0.04700
C2763       C  0.48381749  0.94786103  0.71169553     0.27100
C2764       C  0.48176246  0.96786199  0.71406220    -0.13300
C2765       C  0.49703061  0.97895732  0.72143904     0.05200
C2766       C  0.51433436  0.97004049  0.72778085    -0.09300
C2767       C  0.51649586  0.94996398  0.72503342     0.06000
C2768       C  0.50137469  0.93901365  0.71682116    -0.13600
Br2769     Br  0.48384012  0.94980591  0.66672151    -0.05700
Br2770     Br  0.42127950  0.90202488  0.72129747    -0.00100
Br2771     Br  0.49407933  0.00667502  0.72203752     0.00400
Br2772     Br  0.50440474  0.91170292  0.71291922    -0.04100
Br2773     Br  0.44831277  0.92518594  0.64634515     0.00500
Br2774     Br  0.45684401  0.92733108  0.74189680    -0.03300
Br2775     Br  0.45760569  0.97999764  0.70760621    -0.04200
Br2776     Br  0.53960693  0.93709558  0.73333935    -0.00200
C2777       C  0.49846570  0.24678192  0.68324178     0.01200
C2778       C  0.48198471  0.25186745  0.67256082     0.04000
C2779       C  0.48188478  0.25019168  0.65228896    -0.12100
C2780       C  0.49841532  0.24378045  0.64244417     0.23300
C2781       C  0.51485745  0.23852314  0.65316574    -0.12600
C2782       C  0.51479300  0.23980163  0.67348040     0.04700
C2783       C  0.49861283  0.24309478  0.62085042     0.27100
C2784       C  0.49422580  0.22592208  0.61093966    -0.13300
C2785       C  0.49388814  0.22548498  0.59057450     0.05200
C2786       C  0.49793206  0.24231192  0.57980550    -0.09300
C2787       C  0.50242832  0.25951074  0.58987086     0.06000
C2788       C  0.50284707  0.25981539  0.61021141    -0.13600
Br2789     Br  0.53753544  0.22978389  0.63991182    -0.05700
Br2790     Br  0.45951427  0.26112165  0.68582312    -0.00100
Br2791     Br  0.48664786  0.20196151  0.57766501     0.00400
Br2792     Br  0.50941404  0.28319736  0.62372935    -0.04100
Br2793     Br  0.53704780  0.23193223  0.68805056     0.00500
Br2794     Br  0.45904772  0.25657741  0.63789491    -0.03300
Br2795     Br  0.48834949  0.20303263  0.62545752    -0.04200
Br2796     Br  0.50878732  0.28274847  0.57604567    -0.00200
C2797       C  0.50228891  0.26310736  0.07868274     0.01200
C2798       C  0.48887875  0.27397580  0.08934548     0.04000
C2799       C  0.48916301  0.27357651  0.10970342    -0.12100
C2800       C  0.50262286  0.26199978  0.11961825     0.23300
C2801       C  0.51586561  0.25094384  0.10891730    -0.12600
C2802       C  0.51575843  0.25156913  0.08858016     0.04700
C2803       C  0.50266167  0.26108734  0.14122585     0.27100
C2804       C  0.51528486  0.27271140  0.15209969    -0.13300
C2805       C  0.51596326  0.27115473  0.17240000     0.05200
C2806       C  0.50376449  0.25817290  0.18212894    -0.09300
C2807       C  0.49084831  0.24682801  0.17122216     0.06000
C2808       C  0.49040948  0.24819107  0.15091767    -0.13600
Br2809     Br  0.53398272  0.23467017  0.12223537    -0.05700
Br2810     Br  0.47019731  0.28954838  0.07596732    -0.00100
Br2811     Br  0.53444007  0.28606294  0.18676087     0.00400
Br2812     Br  0.47307731  0.23225841  0.13621054    -0.04100
Br2813     Br  0.53361872  0.23601958  0.07417401     0.00500
Br2814     Br  0.47116518  0.28894924  0.12411106    -0.03300
Br2815     Br  0.53173963  0.29073033  0.13902739    -0.04200
Br2816     Br  0.47312593  0.22987245  0.18409642    -0.00200
C2817       C  0.26701299  0.98914690  0.98265956     0.01200
C2818       C  0.27273526  0.98665059  0.96333647     0.04000
C2819       C  0.28396468  0.00088545  0.95419190    -0.12100
C2820       C  0.28902911  0.01791139  0.96409234     0.23300
C2821       C  0.28412485  0.01997031  0.98359900    -0.12600
C2822       C  0.27361115  0.00547892  0.99296493     0.04700
C2823       C  0.29975138  0.03356245  0.95413061     0.27100
C2824       C  0.31989306  0.03261829  0.95283015    -0.13300
C2825       C  0.33004330  0.04691577  0.94277123     0.05200
C2826       C  0.32017603  0.06248919  0.93418217    -0.09300
C2827       C  0.30010834  0.06396646  0.93627352     0.06000
C2828       C  0.28989754  0.04947666  0.94615350    -0.13600
Br2829     Br  0.29128438  0.04307344  0.99729812    -0.05700
Br2830     Br  0.26408323  0.96460068  0.94886989    -0.00100
Br2831     Br  0.35763132  0.04515198  0.94075703     0.00400
Br2832     Br  0.26235836  0.05112536  0.94843870    -0.04100
Br2833     Br  0.26827832  0.00813723  0.02014055     0.00500
Br2834     Br  0.29191095  0.99749034  0.92784092    -0.03300
Br2835     Br  0.33352059  0.01156569  0.96478288    -0.04200
Br2836     Br  0.28657288  0.08527623  0.92474328    -0.00200
C2837       C  0.28992238  0.25361236  0.99061947     0.01200
C2838       C  0.28901952  0.23569174  0.00046666     0.04000
C2839       C  0.29881853  0.21948343  0.99332962    -0.12100
C2840       C  0.31094157  0.22125288  0.97731500     0.23300
C2841       C  0.31387997  0.23952681  0.96899743    -0.12600
C2842       C  0.30316451  0.25562694  0.97534241     0.04700
C2843       C  0.31971102  0.20368885  0.96864509     0.27100
C2844       C  0.33654779  0.19562646  0.97652711    -0.13300
C2845       C  0.34457214  0.17883361  0.96842519     0.05200
C2846       C  0.33606407  0.17021961  0.95202708    -0.09300
C2847       C  0.31903493  0.17824229  0.94430411     0.06000
C2848       C  0.31075869  0.19470569  0.95279365    -0.13600
Br2849     Br  0.33199012  0.24210914  0.94822094    -0.05700
Br2850     Br  0.27435571  0.23297371  0.02393326    -0.00100
Br2851     Br  0.36694530  0.16737184  0.98026687     0.00400
Br2852     Br  0.28709663  0.20514310  0.94266230    -0.04100
Br2853     Br  0.30582523  0.27976737  0.96195108     0.00500
Br2854     Br  0.29462060  0.19444341  0.00465463    -0.03300
Br2855     Br  0.34866690  0.20781036  0.99835489    -0.04200
Br2856     Br  0.30768599  0.16777255  0.92116591    -0.00200
C2857       C  0.47374817  0.24366483  0.01576364     0.01200
C2858       C  0.47146977  0.22354502  0.01740900     0.04000
C2859       C  0.46201520  0.21317826  0.00269366    -0.12100
C2860       C  0.45551675  0.22275418  0.98597679     0.23300
C2861       C  0.45711971  0.24289861  0.98471626    -0.12600
C2862       C  0.46551063  0.25335075  0.99985599     0.04700
C2863       C  0.44686895  0.21177704  0.96972911     0.27100
C2864       C  0.45864095  0.20157968  0.95669840    -0.13300
C2865       C  0.45031065  0.19058334  0.94176292     0.05200
C2866       C  0.43017789  0.19027197  0.93947230    -0.09300
C2867       C  0.41860673  0.20185512  0.95155753     0.06000
C2868       C  0.42684872  0.21208511  0.96693385    -0.13600
Br2869     Br  0.44883255  0.25609122  0.96167381    -0.05700
Br2870     Br  0.48253263  0.20990187  0.03891741    -0.00100
Br2871     Br  0.46644103  0.17523222  0.92524766     0.00400
Br2872     Br  0.41060682  0.22617777  0.98451295    -0.04100
Br2873     Br  0.46566490  0.28112612  0.99871633     0.00500
Br2874     Br  0.45855024  0.18573645  0.00501947    -0.03300
Br2875     Br  0.48618614  0.20261305  0.95949940    -0.04200
Br2876     Br  0.39133873  0.20426199  0.94673261    -0.00200
C2877       C  0.25198119  0.01809032  0.77998436     0.01200
C2878       C  0.26131281  0.03500491  0.77393783     0.04000
C2879       C  0.27615881  0.04294809  0.78514928    -0.12100
C2880       C  0.28183065  0.03389927  0.80239545     0.23300
C2881       C  0.27166701  0.01768838  0.80906552    -0.12600
C2882       C  0.25676021  0.00976572  0.79783376     0.04700
C2883       C  0.29870153  0.04128437  0.81325814     0.27100
C2884       C  0.31715082  0.03362395  0.80987391    -0.13300
C2885       C  0.33327367  0.04107104  0.81970986     0.05200
C2886       C  0.33102871  0.05632430  0.83296762    -0.09300
C2887       C  0.31237245  0.06389618  0.83631545     0.06000
C2888       C  0.29634742  0.05634033  0.82653748    -0.13600
Br2889     Br  0.27865785  0.00606640  0.83327784    -0.05700
Br2890     Br  0.25413301  0.04684725  0.74985546    -0.00100
Br2891     Br  0.35820521  0.02969319  0.81560819     0.00400
Br2892     Br  0.27099389  0.06673589  0.83104111    -0.04100
Br2893     Br  0.24359106  0.98692017  0.80628528     0.00500
Br2894     Br  0.28918564  0.06588290  0.77662244    -0.03300
Br2895     Br  0.32020271  0.01289738  0.79163753    -0.04200
Br2896     Br  0.30836334  0.08536050  0.85351166    -0.00200
C2897       C  0.44267276  0.06992574  0.82066634     0.01200
C2898       C  0.46115858  0.06926006  0.82930189     0.04000
C2899       C  0.47645901  0.05981808  0.82010551    -0.12100
C2900       C  0.47331101  0.04960670  0.80292210     0.23300
C2901       C  0.45464711  0.04907747  0.79486752    -0.12600
C2902       C  0.43941666  0.05946640  0.80352490     0.04700
C2903       C  0.48962467  0.03892147  0.79391542     0.27100
C2904       C  0.49985171  0.04694337  0.77836024    -0.13300
C2905       C  0.51516221  0.03666175  0.76987993     0.05200
C2906       C  0.52049203  0.01840958  0.77701406    -0.09300
C2907       C  0.51090310  0.01089132  0.79316993     0.06000
C2908       C  0.49548302  0.02102145  0.80152636    -0.13600
Br2909     Br  0.45010057  0.03418289  0.77188477    -0.05700
Br2910     Br  0.46561852  0.08033602  0.85449257    -0.00100
Br2911     Br  0.52801089  0.04687319  0.74757145     0.00400
Br2912     Br  0.48172278  0.00995684  0.82287318    -0.04100
Br2913     Br  0.41447467  0.05993563  0.79145371     0.00500
Br2914     Br  0.50203246  0.06118820  0.83087204    -0.03300
Br2915     Br  0.49239233  0.07170954  0.76827416    -0.04200
Br2916     Br  0.51837774  0.98608495  0.80314996    -0.00200
C2917       C  0.45166888  0.17116433  0.83178441     0.01200
C2918       C  0.44825258  0.19094369  0.82788764     0.04000
C2919       C  0.45641340  0.19970716  0.81151171    -0.12100
C2920       C  0.46736619  0.18878773  0.79840901     0.23300
C2921       C  0.47131187  0.16934393  0.80244888    -0.12600
C2922       C  0.46410361  0.16073179  0.81931066     0.04700
C2923       C  0.47483131  0.19791409  0.78048483     0.27100
C2924       C  0.46231484  0.20184721  0.76493880    -0.13300
C2925       C  0.46873354  0.21278762  0.74911075     0.05200
C2926       C  0.48792488  0.21916318  0.74839270    -0.09300
C2927       C  0.50082276  0.21372599  0.76314133     0.06000
C2928       C  0.49422327  0.20356758  0.77933468    -0.13600
Br2929     Br  0.48627189  0.15434584  0.78446082    -0.05700
Br2930     Br  0.43160297  0.20628832  0.84398837    -0.00100
Br2931     Br  0.45076330  0.22063779  0.72946041     0.00400
Br2932     Br  0.51146455  0.19861731  0.80056253    -0.04100
Br2933     Br  0.47238815  0.13481000  0.82536562     0.00500
Br2934     Br  0.45243826  0.22683055  0.80674185    -0.03300
Br2935     Br  0.43608320  0.19303184  0.76586273    -0.04200
Br2936     Br  0.52757334  0.22079742  0.76137454    -0.00200
C2937       C  0.67796353  0.32215363  0.93510099     0.01200
C2938       C  0.68679566  0.30866092  0.92274898     0.04000
C2939       C  0.69696439  0.29296160  0.93038486    -0.12100
C2940       C  0.69885664  0.29093384  0.95043137     0.23300
C2941       C  0.69095721  0.30498300  0.96281814    -0.12600
C2942       C  0.68021470  0.32041930  0.95515386     0.04700
C2943       C  0.70926343  0.27404800  0.95836906     0.27100
C2944       C  0.69903525  0.25808629  0.96557376    -0.13300
C2945       C  0.70897703  0.24272523  0.97436344     0.05200
C2946       C  0.72916898  0.24310424  0.97544495    -0.09300
C2947       C  0.73936345  0.25820304  0.96651439     0.06000
C2948       C  0.72945998  0.27388174  0.95850137    -0.13600
Br2949     Br  0.69467114  0.30284442  0.99024302    -0.05700
Br2950     Br  0.68469318  0.31147562  0.89519380    -0.00100
Br2951     Br  0.69491873  0.22215999  0.98644628     0.00400
Br2952     Br  0.74353964  0.29577532  0.94891651    -0.04100
Br2953     Br  0.66757088  0.33843112  0.97200704     0.00500
Br2954     Br  0.70780587  0.27381128  0.91340585    -0.03300
Br2955     Br  0.67137712  0.25781145  0.96422100    -0.04200
Br2956     Br  0.76711438  0.25785495  0.96626023    -0.00200
C2957       C  0.57642721  0.31725157  0.93052242     0.01200
C2958       C  0.58397544  0.32212732  0.94900423     0.04000
C2959       C  0.57491595  0.31565841  0.96589312    -0.12100
C2960       C  0.55839721  0.30417506  0.96477138     0.23300
C2961       C  0.55089974  0.29905951  0.94659479    -0.12600
C2962       C  0.55988626  0.30546355  0.92953386     0.04700
C2963       C  0.54897153  0.29754085  0.98283002     0.27100
C2964       C  0.55542737  0.28070029  0.99217235    -0.13300
C2965       C  0.54579204  0.27385323  0.00861161     0.05200
C2966       C  0.52986144  0.28394121  0.01597010    -0.09300
C2967       C  0.52432764  0.30151486  0.00746246     0.06000
C2968       C  0.53378218  0.30826345  0.99088741    -0.13600
Br2969     Br  0.52814583  0.28330852  0.94522906    -0.05700
Br2970     Br  0.60628940  0.33844195  0.95208406    -0.00100
Br2971     Br  0.55346685  0.24990675  0.02034951     0.00400
Br2972     Br  0.52546588  0.33177842  0.97869308    -0.04100
Br2973     Br  0.54997788  0.29708320  0.90496175     0.00500
Br2974     Br  0.58479662  0.32289145  0.99091792    -0.03300
Br2975     Br  0.57697367  0.26662053  0.98191025    -0.04200
Br2976     Br  0.50302771  0.31574474  0.01802976    -0.00200
C2977       C  0.76058190  0.48722053  0.77196723     0.01200
C2978       C  0.74389628  0.49811815  0.77620422     0.04000
C2979       C  0.72925260  0.49033941  0.78773798    -0.12100
C2980       C  0.73148841  0.47200997  0.79607655     0.23300
C2981       C  0.74901783  0.46203505  0.79369367    -0.12600
C2982       C  0.76344110  0.46946784  0.78146852     0.04700
C2983       C  0.71517423  0.46321545  0.80691861     0.27100
C2984       C  0.71121645  0.46908346  0.82591016    -0.13300
C2985       C  0.69536403  0.46137731  0.83584516     0.05200
C2986       C  0.68341394  0.44743221  0.82703512    -0.09300
C2987       C  0.68736213  0.44161304  0.80797641     0.06000
C2988       C  0.70312201  0.44952163  0.79795580    -0.13600
Br2989     Br  0.75291774  0.43789722  0.80680918    -0.05700
Br2990     Br  0.74100607  0.52398608  0.76631971    -0.00100
Br2991     Br  0.69016621  0.46989914  0.86175376     0.00400
Br2992     Br  0.70870334  0.44107306  0.77211353    -0.04100
Br2993     Br  0.78640290  0.45466387  0.77688091     0.00500
Br2994     Br  0.70562454  0.50445360  0.79138384    -0.03300
Br2995     Br  0.72808362  0.48715476  0.83857026    -0.04200
Br2996     Br  0.67220604  0.42160511  0.79611522    -0.00200
C2997       C  0.57209689  0.43369181  0.81419232     0.01200
C2998       C  0.55426103  0.43298924  0.82394580     0.04000
C2999       C  0.53812533  0.44262419  0.81649421    -0.12100
C3000       C  0.53953621  0.45282011  0.79913511     0.23300
C3001       C  0.55725621  0.45371483  0.78939202    -0.12600
C3002       C  0.57352948  0.44420663  0.79691964     0.04700
C3003       C  0.52231118  0.46246317  0.79101559     0.27100
C3004       C  0.51063314  0.45275388  0.77755059    -0.13300
C3005       C  0.49552294  0.46260079  0.76830403     0.05200
C3006       C  0.49190737  0.48203549  0.77278401    -0.09300
C3007       C  0.50260850  0.49122029  0.78737092     0.06000
C3008       C  0.51782617  0.48147200  0.79645368    -0.13600
Br3009     Br  0.55904683  0.46784181  0.76558948    -0.05700
Br3010     Br  0.55160193  0.41927609  0.84785347    -0.00100
Br3011     Br  0.48071837  0.45000247  0.74850177     0.00400
Br3012     Br  0.53300980  0.49432558  0.81582865    -0.04100
Br3013     Br  0.59742300  0.44466337  0.78299249     0.00500
Br3014     Br  0.51392334  0.44196647  0.83001575    -0.03300
Br3015     Br  0.51587281  0.42618882  0.77136831    -0.04200
Br3016     Br  0.49677875  0.51748191  0.79432901    -0.00200
C3017       C  0.55356939  0.33716681  0.82002594     0.01200
C3018       C  0.55288576  0.31682973  0.81919353     0.04000
C3019       C  0.54337988  0.30755984  0.80376908    -0.12100
C3020       C  0.53430351  0.31844583  0.78921011     0.23300
C3021       C  0.53385635  0.33862205  0.79065187    -0.12600
C3022       C  0.54336782  0.34797105  0.80594778     0.04700
C3023       C  0.52519287  0.30856429  0.77244345     0.27100
C3024       C  0.53601925  0.30428627  0.75582891    -0.13300
C3025       C  0.52820517  0.29251241  0.74118427     0.05200
C3026       C  0.50953821  0.28491027  0.74320973    -0.09300
C3027       C  0.49802209  0.29116504  0.75875813     0.06000
C3028       C  0.50589464  0.30271696  0.77343041    -0.13600
Br3029     Br  0.52047684  0.35341199  0.77128380    -0.05700
Br3030     Br  0.56591117  0.30144453  0.83830933    -0.00100
Br3031     Br  0.54361314  0.28578025  0.71917806     0.00400
Br3032     Br  0.49062242  0.30964874  0.79550107    -0.04100
Br3033     Br  0.54210556  0.37576967  0.80744994     0.00500
Br3034     Br  0.54329667  0.27982314  0.80206344    -0.03300
Br3035     Br  0.56195768  0.31369822  0.75377345    -0.04200
Br3036     Br  0.47142655  0.28344748  0.76020183    -0.00200
C3037       C  0.17979522  0.49680101  0.25536051     0.01200
C3038       C  0.17023976  0.48035271  0.24826084     0.04000
C3039       C  0.15000384  0.47939774  0.24857564    -0.12100
C3040       C  0.13916969  0.49481328  0.25612328     0.23300
C3041       C  0.14873757  0.51115064  0.26344312    -0.12600
C3042       C  0.16896551  0.51219976  0.26294295     0.04700
C3043       C  0.11772991  0.49393929  0.25613930     0.27100
C3044       C  0.10721259  0.50071964  0.24015488    -0.13300
C3045       C  0.08697208  0.49972793  0.24000991     0.05200
C3046       C  0.07702266  0.49224496  0.25604089    -0.09300
C3047       C  0.08759491  0.48554220  0.27208971     0.06000
C3048       C  0.10785367  0.48632799  0.27208887    -0.13600
Br3049     Br  0.13402459  0.53199441  0.27433584    -0.05700
Br3050     Br  0.18488459  0.45936948  0.23750387    -0.00100
Br3051     Br  0.07291873  0.50941550  0.21807694     0.00400
Br3052     Br  0.12223227  0.47701396  0.29394929    -0.04100
Br3053     Br  0.18191586  0.53451129  0.27318080     0.00500
Br3054     Br  0.13700613  0.45698425  0.23863943    -0.03300
Br3055     Br  0.12067423  0.51174328  0.21859754    -0.04200
Br3056     Br  0.07441218  0.47451014  0.29382202    -0.00200
C3057       C  0.75304327  0.58106717  0.99187527     0.01200
C3058       C  0.73801775  0.59067936  0.00146765     0.04000
C3059       C  0.73776857  0.61096651  0.00242708    -0.12100
C3060       C  0.75251420  0.62178392  0.99372937     0.23300
C3061       C  0.76745326  0.61214854  0.98397728    -0.12600
C3062       C  0.76775270  0.59185717  0.98311904     0.04700
C3063       C  0.75238807  0.64325613  0.99493344     0.27100
C3064       C  0.74158233  0.65418168  0.98165007    -0.13300
C3065       C  0.74145789  0.67445621  0.98278565     0.05200
C3066       C  0.75225745  0.68396079  0.99708764    -0.09300
C3067       C  0.76325551  0.67308770  0.01022684     0.06000
C3068       C  0.76318556  0.65278780  0.00927174    -0.13600
Br3069     Br  0.78756708  0.62684448  0.97191586    -0.05700
Br3070     Br  0.71823392  0.57594239  0.01402937    -0.00100
Br3071     Br  0.72652056  0.68934103  0.96472131     0.00400
Br3072     Br  0.77777359  0.63793377  0.02764796    -0.04100
Br3073     Br  0.78822637  0.57876054  0.96979309     0.00500
Br3074     Br  0.71746694  0.62401134  0.01603679    -0.03300
Br3075     Br  0.72704573  0.64128838  0.96182586    -0.04200
Br3076     Br  0.77865994  0.68609934  0.02929704    -0.00200
C3077       C  0.73016713  0.51676376  0.97049248     0.01200
C3078       C  0.71507478  0.50688909  0.97964532     0.04000
C3079       C  0.70642100  0.49093399  0.97063905    -0.12100
C3080       C  0.71320885  0.48444803  0.95267819     0.23300
C3081       C  0.72781169  0.49476324  0.94318900    -0.12600
C3082       C  0.73625843  0.51090241  0.95208927     0.04700
C3083       C  0.70484829  0.46691209  0.94367461     0.27100
C3084       C  0.71160578  0.44842097  0.94870391    -0.13300
C3085       C  0.70374594  0.43184650  0.93990851     0.05200
C3086       C  0.68908365  0.43371156  0.92593787    -0.09300
C3087       C  0.68200187  0.45238930  0.92144915     0.06000
C3088       C  0.68999527  0.46882278  0.93013239    -0.13600
Br3089     Br  0.73670573  0.48627180  0.91832448    -0.05700
Br3090     Br  0.70712660  0.51457673  0.00509451    -0.00100
Br3091     Br  0.71369469  0.40679076  0.94654618     0.00400
Br3092     Br  0.68059965  0.49420505  0.92357490    -0.04100
Br3093     Br  0.75721733  0.52415483  0.93980557     0.00500
Br3094     Br  0.68560166  0.47758474  0.98306195    -0.03300
Br3095     Br  0.73192098  0.44596514  0.96746026    -0.04200
Br3096     Br  0.66044208  0.45600486  0.90432806    -0.00200
C3097       C  0.95787914  0.26516836  0.98732532     0.01200
C3098       C  0.95538212  0.28503990  0.99050810     0.04000
C3099       C  0.94416436  0.29154964  0.00611372    -0.12100
C3100       C  0.93592916  0.27823230  0.01903763     0.23300
C3101       C  0.93749235  0.25836049  0.01516254    -0.12600
C3102       C  0.94819580  0.25190028  0.99921545     0.04700
C3103       C  0.92637389  0.28523040  0.03700206     0.27100
C3104       C  0.93752137  0.29167796  0.05275169    -0.13300
C3105       C  0.92871119  0.30094249  0.06858650     0.05200
C3106       C  0.90850670  0.30299555  0.06919676    -0.09300
C3107       C  0.89734810  0.29443855  0.05436791     0.06000
C3108       C  0.90622989  0.28627768  0.03808085    -0.13600
Br3109     Br  0.92599559  0.23993818  0.03237070    -0.05700
Br3110     Br  0.96886638  0.30327531  0.97462879    -0.00100
Br3111     Br  0.94462928  0.31219557  0.08835740     0.00400
Br3112     Br  0.89079851  0.27766830  0.01662233    -0.04100
Br3113     Br  0.95045693  0.22469126  0.99406616     0.00500
Br3114     Br  0.94072031  0.31877245  0.01035606    -0.03300
Br3115     Br  0.96504265  0.28844332  0.05212717    -0.04200
Br3116     Br  0.86965989  0.29385147  0.05622067    -0.00200
C3117       C  0.96297423  0.27508816  0.26455127     0.01200
C3118       C  0.94687665  0.26637425  0.25592451     0.04000
C3119       C  0.93808991  0.27500570  0.23980851    -0.12100
C3120       C  0.94569349  0.29216456  0.23215888     0.23300
C3121       C  0.96087861  0.30158320  0.24173276    -0.12600
C3122       C  0.96926275  0.29319305  0.25809961     0.04700
C3123       C  0.93768450  0.30066305  0.21426956     0.27100
C3124       C  0.94422560  0.29451730  0.19607667    -0.13300
C3125       C  0.93794846  0.30397150  0.17920856     0.05200
C3126       C  0.92539701  0.31992248  0.18054390    -0.09300
C3127       C  0.91865280  0.32573662  0.19893870     0.06000
C3128       C  0.92462983  0.31599122  0.21561342    -0.13600
Br3129     Br  0.97089354  0.32546224  0.23176980    -0.05700
Br3130     Br  0.93760162  0.24219633  0.26575423    -0.00100
Br3131     Br  0.94764178  0.29577758  0.15453955     0.00400
Br3132     Br  0.91529705  0.32382619  0.24061789    -0.04100
Br3133     Br  0.99015185  0.30591333  0.27119255     0.00500
Br3134     Br  0.91617927  0.26307016  0.22774666    -0.03300
Br3135     Br  0.96243251  0.27361735  0.19447173    -0.04200
Br3136     Br  0.90088297  0.34688331  0.20191651    -0.00200
C3137       C  0.93605784  0.42328267  0.18450077     0.01200
C3138       C  0.95237390  0.42640063  0.17283085     0.04000
C3139       C  0.96813472  0.43680593  0.17998673    -0.12100
C3140       C  0.96778752  0.44401292  0.19887652     0.23300
C3141       C  0.95123095  0.44162783  0.21029608    -0.12600
C3142       C  0.93534465  0.43129272  0.20310836     0.04700
C3143       C  0.98503313  0.45354008  0.20705281     0.27100
C3144       C  0.99876364  0.44257802  0.21721443    -0.13300
C3145       C  0.01370073  0.45184081  0.22728734     0.05200
C3146       C  0.01490021  0.47207657  0.22718697    -0.09300
C3147       C  0.00200015  0.48289580  0.21579382     0.06000
C3148       C  0.98715921  0.47362494  0.20564685    -0.13600
Br3149     Br  0.95058454  0.45229105  0.23592739    -0.05700
Br3150     Br  0.95317356  0.41667919  0.14678739    -0.00100
Br3151     Br  0.03134082  0.43696109  0.24270753     0.00400
Br3152     Br  0.96915642  0.48841551  0.19053132    -0.04100
Br3153     Br  0.91314365  0.42721012  0.21908489     0.00500
Br3154     Br  0.99033084  0.44115181  0.16401406    -0.03300
Br3155     Br  0.99636181  0.41493517  0.21816457    -0.04200
Br3156     Br  0.00414592  0.51057976  0.21484833    -0.00200
C3157       C  0.76732167  0.24680526  0.03248560     0.01200
C3158       C  0.75617472  0.26186461  0.04036480     0.04000
C3159       C  0.76490641  0.27913947  0.04614946    -0.12100
C3160       C  0.78499841  0.28104258  0.04523514     0.23300
C3161       C  0.79632735  0.26529567  0.03922785    -0.12600
C3162       C  0.78749727  0.24824165  0.03268663     0.04700
C3163       C  0.79421664  0.29927228  0.05151275     0.27100
C3164       C  0.80085300  0.31282056  0.03792873    -0.13300
C3165       C  0.81069902  0.32945396  0.04416808     0.05200
C3166       C  0.81322740  0.33291344  0.06397246    -0.09300
C3167       C  0.80533556  0.31998701  0.07746875     0.06000
C3168       C  0.79630166  0.30302514  0.07128109    -0.13600
Br3169     Br  0.82391461  0.26749420  0.03913242    -0.05700
Br3170     Br  0.72864602  0.25907048  0.04227721    -0.00100
Br3171     Br  0.82102217  0.34735395  0.02575907     0.00400
Br3172     Br  0.78733191  0.28447940  0.08992045    -0.04100
Br3173     Br  0.80297415  0.22758389  0.02256153     0.00500
Br3174     Br  0.74926201  0.30065688  0.05416192    -0.03300
Br3175     Br  0.79655877  0.30843544  0.01086429    -0.04200
Br3176     Br  0.80682110  0.32525157  0.10460234    -0.00200
C3177       C  0.78108446  0.52089016  0.01724124     0.01200
C3178       C  0.77833614  0.52119838  0.03731805     0.04000
C3179       C  0.78657565  0.50668046  0.04881376    -0.12100
C3180       C  0.79777580  0.49211747  0.04022758     0.23300
C3181       C  0.80194856  0.49288217  0.02045555    -0.12600
C3182       C  0.79353038  0.50718992  0.00895472     0.04700
C3183       C  0.80498498  0.47577240  0.05182103     0.27100
C3184       C  0.82332081  0.47678496  0.06016116    -0.13300
C3185       C  0.83046013  0.46113555  0.07074550     0.05200
C3186       C  0.81900324  0.44449787  0.07353394    -0.09300
C3187       C  0.80080771  0.44331531  0.06468635     0.06000
C3188       C  0.79385964  0.45893588  0.05376099    -0.13600
Br3189     Br  0.81854544  0.47376323  0.00906715    -0.05700
Br3190     Br  0.76208412  0.54051416  0.04883208    -0.00100
Br3191     Br  0.85641354  0.46246833  0.08067975     0.00400
Br3192     Br  0.76901357  0.45747446  0.04151792    -0.04100
Br3193     Br  0.79842421  0.50761312  0.98162411     0.00500
Br3194     Br  0.78178706  0.50607191  0.07612806    -0.03300
Br3195     Br  0.83859542  0.49975909  0.05698298    -0.04200
Br3196     Br  0.78500091  0.42083374  0.06819838    -0.00200
C3197       C  0.74309525  0.48640669  0.21834916     0.01200
C3198       C  0.75426206  0.49951126  0.20776675     0.04000
C3199       C  0.77084350  0.49320259  0.19813465    -0.12100
C3200       C  0.77522095  0.47337089  0.19733190     0.23300
C3201       C  0.76229533  0.45999500  0.20546364    -0.12600
C3202       C  0.74669199  0.46654182  0.21661984     0.04700
C3203       C  0.79386515  0.46672606  0.18906130     0.27100
C3204       C  0.79722060  0.46793275  0.16917049    -0.13300
C3205       C  0.81513691  0.46249624  0.16157430     0.05200
C3206       C  0.82900115  0.45293745  0.17330929    -0.09300
C3207       C  0.82587473  0.45255372  0.19350973     0.06000
C3208       C  0.80861867  0.45994994  0.20128060    -0.13600
Br3209     Br  0.76655142  0.43277175  0.20207144    -0.05700
Br3210     Br  0.74692249  0.52625191  0.20695458    -0.00100
Br3211     Br  0.82072235  0.46997375  0.13533687     0.00400
Br3212     Br  0.80497183  0.46070558  0.22884135    -0.04100
Br3213     Br  0.73126568  0.44852519  0.23085892     0.00500
Br3214     Br  0.78837725  0.51197791  0.18772465    -0.03300
Br3215     Br  0.77687434  0.47623462  0.15208419    -0.04200
Br3216     Br  0.84470326  0.44205921  0.21107157    -0.00200
C3217       C  0.93840439  0.66449266  0.32880253     0.01200
C3218       C  0.95406310  0.67731762  0.33036376     0.04000
C3219       C  0.96052119  0.68751242  0.31403130    -0.12100
C3220       C  0.95110892  0.68536935  0.29614998     0.23300
C3221       C  0.93537016  0.67282591  0.29458702    -0.12600
C3222       C  0.92919396  0.66223153  0.31069062     0.04700
C3223       C  0.95787048  0.69612891  0.27889002     0.27100
C3224       C  0.95151650  0.71510085  0.27551274    -0.13300
C3225       C  0.95886733  0.72566431  0.25987880     0.05200
C3226       C  0.97240533  0.71725117  0.24733051    -0.09300
C3227       C  0.97807216  0.69797248  0.25021412     0.06000
C3228       C  0.97083058  0.68744674  0.26594841    -0.13600
Br3229     Br  0.92215520  0.67041260  0.27022292    -0.05700
Br3230     Br  0.96734037  0.68028503  0.35457948    -0.00100
Br3231     Br  0.95109242  0.75207224  0.25609372     0.00400
Br3232     Br  0.97939330  0.66141708  0.27045830    -0.04100
Br3233     Br  0.90754865  0.64517175  0.30761939     0.00500
Br3234     Br  0.98252999  0.70423349  0.31593074    -0.03300
Br3235     Br  0.93326785  0.72679618  0.29278963    -0.04200
Br3236     Br  0.99706876  0.68654222  0.23362819    -0.00200
C3237       C  0.98565102  0.71990999  0.51663089     0.01200
C3238       C  0.96674802  0.72554389  0.51207997     0.04000
C3239       C  0.95666579  0.71627506  0.49710853    -0.12100
C3240       C  0.96559166  0.70155587  0.48633932     0.23300
C3241       C  0.98430810  0.69550834  0.49131256    -0.12600
C3242       C  0.99422620  0.70456309  0.50653031     0.04700
C3243       C  0.95495349  0.69193335  0.47035574     0.27100
C3244       C  0.94569970  0.67431821  0.47380606    -0.13300
C3245       C  0.93489515  0.66546430  0.45916038     0.05200
C3246       C  0.93244462  0.67458580  0.44103575    -0.09300
C3247       C  0.94233987  0.69191375  0.43734121     0.06000
C3248       C  0.95367326  0.70047728  0.45194922    -0.13600
Br3249     Br  0.99660088  0.67534150  0.47674284    -0.05700
Br3250     Br  0.95518621  0.74682333  0.52564561    -0.00100
Br3251     Br  0.92404709  0.64030892  0.46406264     0.00400
Br3252     Br  0.96713458  0.72419393  0.44702947    -0.04100
Br3253     Br  0.01987180  0.69645719  0.51327349     0.00500
Br3254     Br  0.93078241  0.72407435  0.49095432    -0.03300
Br3255     Br  0.94733617  0.66262943  0.49898988    -0.04200
Br3256     Br  0.93964295  0.70449338  0.41277356    -0.00200
C3257       C  0.93519866  0.55963616  0.32682576     0.01200
C3258       C  0.93247181  0.54755248  0.31073936     0.04000
C3259       C  0.94797915  0.53654135  0.30363561    -0.12100
C3260       C  0.96613491  0.53747483  0.31268011     0.23300
C3261       C  0.96840043  0.54823976  0.32963951    -0.12600
C3262       C  0.95301275  0.55920060  0.33676340     0.04700
C3263       C  0.98327101  0.52875049  0.30341079     0.27100
C3264       C  0.98959327  0.51016008  0.30853157    -0.13300
C3265       C  0.00522697  0.50175736  0.29880359     0.05200
C3266       C  0.01453919  0.51190484  0.28398134    -0.09300
C3267       C  0.00894591  0.53089656  0.27968509     0.06000
C3268       C  0.99339757  0.53934462  0.28943706    -0.13600
Br3269     Br  0.99297513  0.54856644  0.34259790    -0.05700
Br3270     Br  0.90801308  0.54697210  0.29771938    -0.00100
Br3271     Br  0.01347035  0.47599380  0.30505378     0.00400
Br3272     Br  0.98543128  0.56521656  0.28317890    -0.04100
Br3273     Br  0.95659018  0.57349693  0.36038688     0.00500
Br3274     Br  0.94474236  0.52079016  0.28100440    -0.03300
Br3275     Br  0.97636388  0.49602925  0.32831461    -0.04200
Br3276     Br  0.02181634  0.54480365  0.25948164    -0.00200
C3277       C  0.81899746  0.55478058  0.43991556     0.01200
C3278       C  0.79913834  0.55464930  0.44358066     0.04000
C3279       C  0.79081895  0.53881121  0.45310541    -0.12100
C3280       C  0.80214549  0.52258616  0.45784537     0.23300
C3281       C  0.82202443  0.52288227  0.45445523    -0.12600
C3282       C  0.83049377  0.53915606  0.44607021     0.04700
C3283       C  0.79298155  0.50492401  0.46555446     0.27100
C3284       C  0.79369972  0.50090766  0.48540283    -0.13300
C3285       C  0.78311370  0.48542480  0.49287030     0.05200
C3286       C  0.77120505  0.47441049  0.48068633    -0.09300
C3287       C  0.77173068  0.47741667  0.46066861     0.06000
C3288       C  0.78290443  0.49246719  0.45306516    -0.13600
Br3289     Br  0.83742149  0.50043215  0.46006012    -0.05700
Br3290     Br  0.78315213  0.57511663  0.43382619    -0.00100
Br3291     Br  0.78360128  0.48007875  0.52011909     0.00400
Br3292     Br  0.78362385  0.49677717  0.42565369    -0.04100
Br3293     Br  0.85794817  0.53968309  0.44226116     0.00500
Br3294     Br  0.76377694  0.53892063  0.45903665    -0.03300
Br3295     Br  0.80795304  0.51748690  0.50252503    -0.04200
Br3296     Br  0.75558240  0.46226606  0.44396470    -0.00200
C3297       C  0.83246678  0.66610142  0.45367713     0.01200
C3298       C  0.84435582  0.68035281  0.46243671     0.04000
C3299       C  0.83692458  0.69863599  0.46705930    -0.12100
C3300       C  0.81726091  0.70247552  0.46483866     0.23300
C3301       C  0.80491771  0.68776559  0.45832443    -0.12600
C3302       C  0.81240793  0.66974674  0.45248438     0.04700
C3303       C  0.80933689  0.72158599  0.47059752     0.27100
C3304       C  0.80511205  0.72521849  0.49006031    -0.13300
C3305       C  0.79579346  0.74238168  0.49535961     0.05200
C3306       C  0.78988789  0.75572819  0.48117791    -0.09300
C3307       C  0.79553175  0.75285512  0.46192106     0.06000
C3308       C  0.80544024  0.73587941  0.45667924    -0.13600
Br3309     Br  0.77760464  0.69256921  0.45736711    -0.05700
Br3310     Br  0.87068290  0.67495258  0.46972228    -0.00100
Br3311     Br  0.78995340  0.74714256  0.52210920     0.00400
Br3312     Br  0.81285088  0.73164041  0.43031311    -0.04100
Br3313     Br  0.79471742  0.65063371  0.44281712     0.00500
Br3314     Br  0.85376256  0.71877855  0.47619612    -0.03300
Br3315     Br  0.81085509  0.70600243  0.50929502    -0.04200
Br3316     Br  0.78815837  0.77123904  0.44251032    -0.00200
C3317       C  0.82457445  0.54586689  0.33888003     0.01200
C3318       C  0.82691851  0.53246969  0.32370643     0.04000
C3319       C  0.81082836  0.52605116  0.31305091    -0.12100
C3320       C  0.79221711  0.53256940  0.31769632     0.23300
C3321       C  0.78964656  0.54484204  0.33356256    -0.12600
C3322       C  0.80562987  0.55154902  0.34409134     0.04700
C3323       C  0.77545489  0.52755414  0.30522031     0.27100
C3324       C  0.77123395  0.53895377  0.28898937    -0.13300
C3325       C  0.75603607  0.53386609  0.27657576     0.05200
C3326       C  0.74462669  0.51754022  0.28044136    -0.09300
C3327       C  0.74828276  0.50667969  0.29721132     0.06000
C3328       C  0.76364751  0.51166908  0.30956213    -0.13600
Br3329     Br  0.76399587  0.55297841  0.34035797    -0.05700
Br3330     Br  0.85196805  0.52204095  0.31802412    -0.00100
Br3331     Br  0.75130518  0.54893322  0.25377949     0.00400
Br3332     Br  0.76905161  0.49640354  0.33209166    -0.04100
Br3333     Br  0.80090775  0.56948138  0.36487412     0.00500
Br3334     Br  0.81417851  0.50852346  0.29177580    -0.03300
Br3335     Br  0.78666457  0.56135696  0.28357476    -0.04200
Br3336     Br  0.73314869  0.48413668  0.30251282    -0.00200
C3337       C  0.57261038  0.57995811  0.68579933     0.01200
C3338       C  0.57443083  0.56469656  0.69910762     0.04000
C3339       C  0.55789905  0.55604798  0.70698146    -0.12100
C3340       C  0.53945293  0.56252366  0.70160293     0.23300
C3341       C  0.53753772  0.57807159  0.68883986    -0.12600
C3342       C  0.55396455  0.58683437  0.68100483     0.04700
C3343       C  0.52204341  0.55253293  0.70884693     0.27100
C3344       C  0.51533153  0.53584747  0.69942870    -0.13300
C3345       C  0.50002060  0.52527370  0.70729402     0.05200
C3346       C  0.49111087  0.53159604  0.72432470    -0.09300
C3347       C  0.49677969  0.54908968  0.73284164     0.06000
C3348       C  0.51237217  0.55945363  0.72525876    -0.13600
Br3349     Br  0.51217381  0.58695706  0.68175818    -0.05700
Br3350     Br  0.59949417  0.55614225  0.70732418    -0.00100
Br3351     Br  0.49180781  0.50157902  0.69539893     0.00400
Br3352     Br  0.52118473  0.58251558  0.73793141    -0.04100
Br3353     Br  0.55029899  0.60762806  0.66290655     0.00500
Br3354     Br  0.56037045  0.53522075  0.72517846    -0.03300
Br3355     Br  0.52770300  0.52712086  0.67620079    -0.04200
Br3356     Br  0.48380035  0.55813196  0.75561632    -0.00200
C3357       C  0.67384050  0.68181726  0.55028224     0.01200
C3358       C  0.69396726  0.68327762  0.55204185     0.04000
C3359       C  0.70389145  0.69814895  0.54245187    -0.12100
C3360       C  0.69367042  0.71197572  0.53158186     0.23300
C3361       C  0.67364908  0.71015801  0.52938716    -0.12600
C3362       C  0.66384436  0.69494828  0.53838503     0.04700
C3363       C  0.70393582  0.72831890  0.52228549     0.27100
C3364       C  0.70944719  0.74461204  0.53314341    -0.13300
C3365       C  0.72037123  0.75939089  0.52455987     0.05200
C3366       C  0.72538195  0.75816293  0.50495138    -0.09300
C3367       C  0.71855421  0.74256771  0.49382043     0.06000
C3368       C  0.70825948  0.72751979  0.50252034    -0.13600
Br3369     Br  0.65953922  0.72903388  0.51466135    -0.05700
Br3370     Br  0.70773792  0.66591798  0.56877820    -0.00100
Br3371     Br  0.72993897  0.78034097  0.54006282     0.00400
Br3372     Br  0.70115019  0.70515547  0.48763221    -0.04100
Br3373     Br  0.63651631  0.69212548  0.53448889     0.00500
Br3374     Br  0.73145630  0.69994828  0.54455307    -0.03300
Br3375     Br  0.70276104  0.74617454  0.56000992    -0.04200
Br3376     Br  0.72401650  0.74149626  0.46659966    -0.00200
C3377       C  0.67917662  0.57071122  0.55965128     0.01200
C3378       C  0.69869932  0.56542500  0.55924127     0.04000
C3379       C  0.70450901  0.54850588  0.54961195    -0.12100
C3380       C  0.69070494  0.53621438  0.54116618     0.23300
C3381       C  0.67117119  0.54158104  0.54146761    -0.12600
C3382       C  0.66548745  0.55895430  0.55033214     0.04700
C3383       C  0.69681047  0.51775206  0.53193407     0.27100
C3384       C  0.69843857  0.51652025  0.51176642    -0.13300
C3385       C  0.70568180  0.49965515  0.50314279     0.05200
C3386       C  0.71205832  0.48406851  0.51461723    -0.09300
C3387       C  0.70973963  0.48502532  0.53475639     0.06000
C3388       C  0.70181193  0.50167319  0.54333839    -0.13600
Br3389     Br  0.65215602  0.52476166  0.53025181    -0.05700
Br3390     Br  0.71740660  0.58135851  0.57208767    -0.00100
Br3391     Br  0.70766540  0.49824181  0.47543688     0.00400
Br3392     Br  0.69862241  0.50289619  0.57087497    -0.04100
Br3393     Br  0.63878871  0.56633753  0.55028133     0.00500
Br3394     Br  0.73142029  0.54216942  0.54787076    -0.03300
Br3395     Br  0.69196270  0.53848334  0.49601424    -0.04200
Br3396     Br  0.71932914  0.46451670  0.55080296    -0.00200
C3397       C  0.67827203  0.54870486  0.65713938     0.01200
C3398       C  0.67734201  0.54387835  0.67695483     0.04000
C3399       C  0.69315475  0.53474177  0.68606532    -0.12100
C3400       C  0.71006096  0.53063471  0.67566257     0.23300
C3401       C  0.71020022  0.53347211  0.65565582    -0.12600
C3402       C  0.69414357  0.54160792  0.64631831     0.04700
C3403       C  0.72785168  0.52383258  0.68576270     0.27100
C3404       C  0.74035048  0.53727567  0.69447243    -0.13300
C3405       C  0.75650183  0.53093110  0.70506389     0.05200
C3406       C  0.76044671  0.51109981  0.70685214    -0.09300
C3407       C  0.74870415  0.49776084  0.69700417     0.06000
C3408       C  0.73241752  0.50406202  0.68660851    -0.13600
Br3409     Br  0.73291367  0.52698165  0.64113204    -0.05700
Br3410     Br  0.65485539  0.54971436  0.69201169    -0.00100
Br3411     Br  0.77236572  0.54930995  0.71848872     0.00400
Br3412     Br  0.71579005  0.48558210  0.67429731    -0.04100
Br3413     Br  0.69397446  0.54203202  0.61843170     0.00500
Br3414     Br  0.69204471  0.52818988  0.71301223    -0.03300
Br3415     Br  0.73482665  0.56441289  0.69250176    -0.04200
Br3416     Br  0.75468747  0.47068923  0.69844908    -0.00200
C3417       C  0.58288627  0.70428112  0.57692414     0.01200
C3418       C  0.56395090  0.70028755  0.57063663     0.04000
C3419       C  0.55642815  0.70951021  0.55415298    -0.12100
C3420       C  0.56799295  0.72202201  0.54317844     0.23300
C3421       C  0.58671975  0.72629997  0.54953501    -0.12600
C3422       C  0.59391514  0.71797152  0.56660540     0.04700
C3423       C  0.56031286  0.73050414  0.52495495     0.27100
C3424       C  0.55828182  0.71894952  0.50833022    -0.13300
C3425       C  0.54777648  0.72577312  0.49231646     0.05200
C3426       C  0.53988911  0.74448975  0.49259526    -0.09300
C3427       C  0.54406618  0.75680215  0.50825066     0.06000
C3428       C  0.55373714  0.74969928  0.52458892    -0.13600
Br3429     Br  0.60282484  0.74297541  0.53432987    -0.05700
Br3430     Br  0.54867055  0.68090508  0.58326931    -0.00100
Br3431     Br  0.54258470  0.70873328  0.47100298     0.00400
Br3432     Br  0.55654542  0.76582140  0.54705009    -0.04100
Br3433     Br  0.61890293  0.72578464  0.57590427     0.00500
Br3434     Br  0.53027265  0.70465219  0.54619919    -0.03300
Br3435     Br  0.56893689  0.69330498  0.50805156    -0.04200
Br3436     Br  0.53586061  0.78337157  0.50752139    -0.00200
C3437       C  0.52399778  0.72813907  0.76321010     0.01200
C3438       C  0.53341184  0.73900407  0.74883720     0.04000
C3439       C  0.54422399  0.72972137  0.73448923    -0.12100
C3440       C  0.54625752  0.70956532  0.73470490     0.23300
C3441       C  0.53845851  0.69888109  0.75007746    -0.12600
C3442       C  0.52710507  0.70809048  0.76416189     0.04700
C3443       C  0.55532985  0.69958366  0.71803885     0.27100
C3444       C  0.54368918  0.69170625  0.70335151    -0.13300
C3445       C  0.55212208  0.68212283  0.68757903     0.05200
C3446       C  0.57225583  0.68077971  0.68615394    -0.09300
C3447       C  0.58388283  0.68908463  0.70061571     0.06000
C3448       C  0.57546028  0.69831138  0.71657653    -0.13600
Br3449     Br  0.54266520  0.67147028  0.75122422    -0.05700
Br3450     Br  0.53120768  0.76674012  0.74846735    -0.00100
Br3451     Br  0.53611854  0.66977696  0.66856960     0.00400
Br3452     Br  0.59142532  0.70879088  0.73673811    -0.04100
Br3453     Br  0.51437452  0.69294113  0.78352780     0.00500
Br3454     Br  0.55534705  0.74450040  0.71382277    -0.03300
Br3455     Br  0.51611775  0.69384363  0.70507967    -0.04200
Br3456     Br  0.61147157  0.68765919  0.69856209    -0.00200
loop_ 
_geom_bond_atom_site_label_1 
_geom_bond_atom_site_label_2 
_geom_bond_distance 
_geom_bond_site_symmetry_2 
_ccdc_geom_bond_type 
O1           Mg3   2.123       .  S
O1           Mg9   2.148       .  S
O1           C36   1.238       .  S
C2           O15   1.238       .  S
C2           O39   1.272       .  A
C2           H41   1.080       .  S
Mg3          O32   2.137       .  S
Mg3          O47   2.304       .  S
Mg3          O43   2.218       .  S
Mg3          O14   2.295       .  S
O4          Mg46   2.151       .  S
O4          Mg29   2.131       .  S
O4           C25   1.239       .  S
O5           C36   1.271       .  A
O5          Mg29   2.289       .  S
C6            O8   1.279       .  A
C6           O20   1.272       .  A
C6         C3337   1.492       .  S
O7           C35   1.272       .  A
O7           Mg9   2.302       .  S
O8          Mg40   2.311       .  S
Mg9          O15   2.143       .  S
Mg9          O23   2.306       .  S
Mg9          O11   2.365       .  S
C10          O48   1.270       .  A
C10          O16   1.282       .  A
C10        C3446   1.481       .  S
O11          C18   1.282       .  A
H12          C25   1.080       .  S
C13          O27   1.238       .  S
C13          O28   1.273       .  A
C13          H38   1.083       .  S
O14          C37   1.272       .  A
O15         Mg29   2.138       .  S
O16         Mg46   2.362       .  S
C17          O30   1.279       .  A
C17          O22   1.270       .  A
C17        C3417   1.495       .  S
C18          O45   1.268       .  A
C18        C3357   1.482       .  S
Mg19         O26   2.142       .  S
Mg19         O27   2.147       .  S
Mg19         O20   2.285       .  S
Mg19         O21   2.296       .  S
Mg19         O48   2.245       .  S
O21          C25   1.272       .  A
O22         Mg29   2.272       .  S
O23          C42   1.278       .  A
O24          C44   1.286       .  A
O24         Mg40   2.397       .  S
O26         Mg40   2.157       .  S
O26          C37   1.239       .  S
O27         Mg46   2.151       .  S
O28         Mg40   2.311       .  S
Mg29         O45   2.222       .  S
O30         Mg46   2.325       .  S
H31          C36   1.082       .  S
O32         Mg40   2.142       .  S
O32          C35   1.238       .  S
H33          C35   1.082       .  S
H34          C37   1.082       .  S
O39         Mg46   2.306       .  S
C42          O47   1.275       .  A
C42        C3377   1.483       .  S
O43          C44   1.268       .  A
C44        C3397   1.509       .  S
O49         Mg51   2.119       .  S
O49         Mg57   2.131       .  S
O49          C84   1.239       .  S
C50          O63   1.240       .  S
C50          O87   1.275       .  A
C50          H89   1.079       .  S
Mg51         O80   2.120       .  S
Mg51         O95   2.300       .  S
Mg51         O91   2.235       .  S
Mg51         O62   2.310       .  S
O52         Mg94   2.141       .  S
O52         Mg77   2.121       .  S
O52          C73   1.237       .  S
O53          C84   1.273       .  A
O53         Mg77   2.303       .  S
C54          O56   1.277       .  A
C54          O68   1.270       .  A
C54        C3317   1.499       .  S
O55          C83   1.275       .  A
O55         Mg57   2.313       .  S
O56         Mg88   2.310       .  S
Mg57         O63   2.142       .  S
Mg57         O71   2.301       .  S
Mg57         O59   2.379       .  S
C58          O96   1.267       .  A
C58          O64   1.283       .  A
C58        C3277   1.475       .  S
O59          C66   1.283       .  A
H60          C73   1.080       .  S
C61          O75   1.241       .  S
C61          O76   1.276       .  A
C61          H86   1.081       .  S
O62          C85   1.273       .  A
O63         Mg77   2.111       .  S
O64         Mg94   2.367       .  S
C65          O78   1.278       .  A
C65          O70   1.268       .  A
C65        C3297   1.506       .  S
C66          O93   1.267       .  A
C66        C3246   1.491       .  S
Mg67         O74   2.110       .  S
Mg67         O75   2.142       .  S
Mg67         O68   2.283       .  S
Mg67         O69   2.296       .  S
Mg67         O96   2.209       .  S
O69          C73   1.270       .  A
O70         Mg77   2.264       .  S
O71          C90   1.277       .  A
O72          C92   1.280       .  A
O72         Mg88   2.365       .  S
O74         Mg88   2.127       .  S
O74          C85   1.239       .  S
O75         Mg94   2.157       .  S
O76         Mg88   2.314       .  S
Mg77         O93   2.231       .  S
O78         Mg94   2.327       .  S
H79          C84   1.081       .  S
O80         Mg88   2.150       .  S
O80          C83   1.240       .  S
H81          C83   1.083       .  S
H82          C85   1.081       .  S
O87         Mg94   2.314       .  S
C90          O95   1.274       .  A
C90        C3217   1.493       .  S
O91          C92   1.268       .  A
C92        C3257   1.485       .  S
O97         Mg99   2.132       .  S
O97        Mg105   2.150       .  S
O97         C132   1.239       .  S
C98         O111   1.238       .  S
C98         O135   1.272       .  A
C98         H137   1.084       .  S
Mg99        O128   2.138       .  S
Mg99        O143   2.283       .  S
Mg99        O139   2.246       .  S
Mg99        O110   2.300       .  S
O100       Mg142   2.135       .  S
O100       Mg125   2.121       .  S
O100        C121   1.239       .  S
O101        C132   1.272       .  A
O101       Mg125   2.294       .  S
C102        O104   1.276       .  A
C102        O116   1.267       .  A
C102       C3206   1.508       .  S
O103        C131   1.273       .  A
O103       Mg105   2.310       .  S
O104       Mg136   2.325       .  S
Mg105       O111   2.122       .  S
Mg105       O119   2.300       .  S
Mg105       O107   2.389       .  S
C106        O144   1.265       .  A
C106        O112   1.281       .  A
C106       C3186   1.479       .  S
O107        C114   1.286       .  A
H108        C121   1.080       .  S
C109        O123   1.239       .  S
C109        O124   1.273       .  A
C109        H134   1.081       .  S
O110        C133   1.273       .  A
O111       Mg125   2.129       .  S
O112       Mg142   2.357       .  S
C113        O126   1.275       .  A
C113        O118   1.272       .  A
C113       C3166   1.478       .  S
C114        O141   1.269       .  A
C114       C3106   1.497       .  S
Mg115       O122   2.106       .  S
Mg115       O123   2.113       .  S
Mg115       O116   2.261       .  S
Mg115       O117   2.299       .  S
Mg115       O144   2.209       .  S
O117        C121   1.272       .  A
O118       Mg125   2.290       .  S
O119        C138   1.278       .  A
O120        C140   1.278       .  A
O120       Mg136   2.334       .  S
O122       Mg136   2.137       .  S
O122        C133   1.239       .  S
O123       Mg142   2.130       .  S
O124       Mg136   2.308       .  S
Mg125       O141   2.222       .  S
O126       Mg142   2.297       .  S
H127        C132   1.082       .  S
O128       Mg136   2.153       .  S
O128        C131   1.239       .  S
H129        C131   1.083       .  S
H130        C133   1.081       .  S
O135       Mg142   2.295       .  S
C138        O143   1.273       .  A
C138       C3126   1.489       .  S
O139        C140   1.270       .  A
C140       C3137   1.478       .  S
C145       C3057   1.482       .  S
C145        N146   1.363   1_556  A
C145        N150   1.367       .  A
N146        C147   1.358       .  A
C147       C3177   1.470       .  S
C147        N148   1.349   1_554  A
N148        C149   1.348       .  A
C149       C3077   1.472       .  S
C149        N150   1.363       .  A
C151       C3046   1.489       .  S
C151        N152   1.366       .  A
C151        N156   1.366       .  A
N152        C153   1.361       .  A
C153       C3146   1.475       .  S
C153        N154   1.350       .  A
N154        C155   1.349       .  A
C155       C3266   1.471       .  S
C155        N156   1.361       .  A
O157       Mg159   2.117       .  S
O157       Mg165   2.146       .  S
O157        C192   1.240       .  S
C158        O171   1.236       .  S
C158        O195   1.269       .  A
C158        H197   1.083       .  S
Mg159       O188   2.132       .  S
Mg159       O203   2.271       .  S
Mg159       O199   2.224       .  S
Mg159       O170   2.301       .  S
O160       Mg202   2.157       .  S
O160       Mg185   2.120       .  S
O160        C181   1.239       .  S
O161        C192   1.273       .  A
O161       Mg185   2.293       .  S
C162        O164   1.277       .  A
C162        O176   1.272       .  A
C162       C2997   1.484       .  S
O163        C191   1.273       .  A
O163       Mg165   2.297       .  S
O164       Mg196   2.301       .  S
Mg165       O171   2.130       .  S
Mg165       O179   2.313       .  S
Mg165       O167   2.348       .  S
C166        O204   1.268       .  A
C166        O172   1.285       .  A
C166       C3017   1.495       .  S
O167        C174   1.281       .  A
H168        C181   1.082       .  S
C169        O183   1.238       .  S
C169        O184   1.273       .  A
C169        H194   1.082       .  S
O170        C193   1.273       .  A
O171       Mg185   2.132       .  S
O172       Mg202   2.377       .  S
C173        O186   1.282       .  A
C173        O178   1.272       .  A
C173       C2957   1.500       .  S
C174        O201   1.270       .  A
C174       C2937   1.474       .  S
Mg175       O182   2.136       .  S
Mg175       O183   2.142       .  S
Mg175       O176   2.285       .  S
Mg175       O177   2.288       .  S
Mg175       O204   2.223       .  S
O177        C181   1.271       .  A
O178       Mg185   2.278       .  S
O179        C198   1.277       .  A
O180        C200   1.286       .  A
O180       Mg196   2.387       .  S
O182       Mg196   2.143       .  S
O182        C193   1.239       .  S
O183       Mg202   2.143       .  S
O184       Mg196   2.309       .  S
Mg185       O201   2.233       .  S
O186       Mg202   2.323       .  S
H187        C192   1.081       .  S
O188       Mg196   2.123       .  S
O188        C191   1.240       .  S
H189        C191   1.083       .  S
H190        C193   1.081       .  S
O195       Mg202   2.293       .  S
C198        O203   1.270       .  A
C198       C3086   1.493       .  S
O199        C200   1.268       .  A
C200       C2986   1.489       .  S
O205       Mg207   2.135       .  S
O205       Mg213   2.150       .  S
O205        C240   1.238       .  S
C206        O219   1.239       .  S
C206        O243   1.274       .  A
C206        H245   1.079       .  S
Mg207       O236   2.109       .  S
Mg207       O251   2.288       .  S
Mg207       O247   2.233       .  S
Mg207       O218   2.308       .  S
O208       Mg250   2.144       .  S
O208       Mg233   2.125       .  S
O208        C229   1.238       .  S
O209        C240   1.271       .  A
O209       Mg233   2.294       .  S
C210        O212   1.278       .  A
C210        O224   1.271       .  A
C210       C2886   1.490       .  S
O211        C239   1.272       .  A
O211       Mg213   2.310       .  S
O212       Mg244   2.307       .  S
Mg213       O219   2.155       .  S
Mg213       O227   2.311       .  S
Mg213       O215   2.356       .  S
C214        O252   1.270       .  A
C214        O220   1.281       .  A
C214       C2826   1.482       .  S
O215        C222   1.281       .  A
H216        C229   1.080       .  S
C217        O231   1.241       .  S
C217        O232   1.275       .  A
C217        H242   1.082       .  S
O218        C241   1.273       .  A
O219       Mg233   2.147       .  S
O220       Mg250   2.356       .  S
C221        O234   1.276       .  A
C221        O226   1.272       .  A
C221       C2846   1.487       .  S
C222        O249   1.267       .  A
C222       C2866   1.483       .  S
Mg223       O230   2.129       .  S
Mg223       O231   2.143       .  S
Mg223       O224   2.282       .  S
Mg223       O225   2.295       .  S
Mg223       O252   2.243       .  S
O225        C229   1.271       .  A
O226       Mg233   2.288       .  S
O227        C246   1.277       .  A
O228        C248   1.284       .  A
O228       Mg244   2.387       .  S
O230       Mg244   2.134       .  S
O230        C241   1.239       .  S
O231       Mg250   2.141       .  S
O232       Mg244   2.310       .  S
Mg233       O249   2.212       .  S
O234       Mg250   2.296       .  S
H235        C240   1.081       .  S
O236       Mg244   2.145       .  S
O236        C239   1.237       .  S
H237        C239   1.080       .  S
H238        C241   1.082       .  S
O243       Mg250   2.311       .  S
C246        O251   1.272       .  A
C246       C2917   1.502       .  S
O247        C248   1.267       .  A
C248       C2897   1.493       .  S
C253       C2797   1.491       .  S
C253        N254   1.369       .  A
C253        N258   1.368       .  A
N254        C255   1.363       .  A
C255       C2966   1.476       .  S
C255        N256   1.347       .  A
N256        C257   1.349       .  A
C257       C2857   1.483       .  S
C257        N258   1.363       .  A
C259       C2777   1.489       .  S
C259        N260   1.369       .  A
C259        N264   1.367       .  A
N260        C261   1.364       .  A
C261       C3026   1.487       .  S
C261        N262   1.350       .  A
N262        C263   1.349       .  A
C263       C2926   1.481       .  S
C263        N264   1.362       .  A
C265       C2746   1.504       .  S
C265        N266   1.370   1_565  A
C265        N270   1.375       .  A
N266        C267   1.364       .  A
C267       C2906   1.479       .  S
C267        N268   1.346   1_545  A
N268        C269   1.349       .  A
C269       C2766   1.501       .  S
C269        N270   1.371       .  A
C271       C2686   1.499       .  S
C271        N272   1.369   1_545  A
C271        N276   1.369       .  A
N272        C273   1.364       .  A
C273       C2697   1.480       .  S
C273        N274   1.351   1_565  A
N274        C275   1.351       .  A
C275       C2717   1.480       .  S
C275        N276   1.364       .  A
C277       C2637   1.493       .  S
C277        N278   1.368       .  A
C277        N282   1.371       .  A
N278        C279   1.362       .  A
C279       C2657   1.482   1_556  S
C279        N280   1.346       .  A
N280        C281   1.347       .  A
C281       C2837   1.496       .  S
C281        N282   1.367       .  A
C283       C2597   1.493       .  S
C283        N284   1.370       .  A
C283        N288   1.370   1_554  A
N284        C285   1.364       .  A
C285       C2626   1.486       .  S
C285        N286   1.348   1_554  A
N286        C287   1.347       .  A
C287       C2817   1.488       .  S
C287        N288   1.365       .  A
C289       C2537   1.509       .  S
C289        N290   1.372   1_565  A
C289        N294   1.372       .  A
N290        C291   1.368       .  A
C291       C2577   1.492       .  S
C291        N292   1.351   1_545  A
N292        C293   1.349       .  A
C293       C2557   1.485       .  S
C293        N294   1.366       .  A
C295       C2497   1.496       .  S
C295        N296   1.368   1_655  A
C295        N300   1.371       .  A
N296        C297   1.362       .  A
C297       C2526   1.472       .  S
C297        N298   1.348   1_455  A
N298        C299   1.348       .  A
C299       C3097   1.481       .  S
C299        N300   1.365       .  A
C301       C2466   1.493       .  S
C301        N302   1.365       .  A
C301        N306   1.373   1_655  A
N302        C303   1.358       .  A
C303       C3117   1.468       .  S
C303        N304   1.348       .  A
N304        C305   1.349   1_655  A
C305       C2477   1.487       .  S
C305        N306   1.368       .  A
O307       Mg309   2.136       .  S
O307       Mg315   2.150       .  S
O307        C342   1.239       .  S
C308        O321   1.237       .  S
C308        O345   1.270       .  A
C308        H347   1.082       .  S
Mg309       O338   2.127       .  S
Mg309       O353   2.309       .  S
Mg309       O349   2.245       .  S
Mg309       O320   2.302       .  S
O310       Mg352   2.153       .  S
O310       Mg335   2.138       .  S
O310        C331   1.239       .  S
O311        C342   1.273       .  A
O311       Mg335   2.296       .  S
C312        O314   1.278       .  A
C312        O326   1.270       .  A
C312       C2517   1.494       .  S
O313        C341   1.271       .  A
O313       Mg315   2.300       .  S
O314       Mg346   2.317       .  S
Mg315       O321   2.139       .  S
Mg315       O329   2.297       .  S
Mg315       O317   2.353       .  S
C316        O354   1.269       .  A
C316        O322   1.283       .  A
C316       C2666   1.489       .  S
O317        C324   1.281       .  A
H318        C331   1.081       .  S
C319        O333   1.239       .  S
C319        O334   1.272       .  A
C319        H344   1.083       .  S
O320        C343   1.274       .  A
O321       Mg335   2.139       .  S
O322       Mg352   2.370       .  S
C323        O336   1.278       .  A
C323        O328   1.274       .  A
C323       C2617   1.481       .  S
C324        O351   1.271       .  A
C324       C2586   1.491       .  S
Mg325       O332   2.133       .  S
Mg325       O333   2.142       .  S
Mg325       O326   2.273       .  S
Mg325       O327   2.298       .  S
Mg325       O354   2.236       .  S
O327        C331   1.273       .  A
O328       Mg335   2.301       .  S
O329        C348   1.278       .  A
O330        C350   1.283       .  A
O330       Mg346   2.363       .  S
O332       Mg346   2.152       .  S
O332        C343   1.240       .  S
O333       Mg352   2.134       .  S
O334       Mg346   2.299       .  S
Mg335       O351   2.240       .  S
O336       Mg352   2.296       .  S
H337        C342   1.083       .  S
O338       Mg346   2.134       .  S
O338        C341   1.238       .  S
H339        C341   1.083       .  S
H340        C343   1.081       .  S
O345       Mg352   2.301       .  S
C348        O353   1.276       .  A
C348       C2726   1.492       .  S
O349        C350   1.272       .  A
C350       C2486   1.486       .  S
O355       Mg357   2.139       .  S
O355       Mg363   2.145       .  S
O355        C390   1.239       .  S
C356        O369   1.239       .  S
C356        O393   1.274       .  A
C356        H395   1.079       .  S
Mg357       O386   2.131       .  S
Mg357       O401   2.305       .  S
Mg357       O397   2.269       .  S
Mg357       O368   2.295       .  S
O358       Mg400   2.143       .  S
O358       Mg383   2.124       .  S
O358        C379   1.239       .  S
O359        C390   1.272       .  A
O359       Mg383   2.298       .  S
C360        O362   1.278       .  A
C360        O374   1.270       .  A
C360       C2357   1.503       .  S
O361        C389   1.273       .  A
O361       Mg363   2.301       .  S
O362       Mg394   2.310       .  S
Mg363       O369   2.151       .  S
Mg363       O377   2.311       .  S
Mg363       O365   2.363       .  S
C364        O402   1.267       .  A
C364        O370   1.283       .  A
C364       C2386   1.478       .  S
O365        C372   1.283       .  A
H366        C379   1.080       .  S
C367        O381   1.241       .  S
C367        O382   1.275       .  A
C367        H392   1.081       .  S
O368        C391   1.272       .  A
O369       Mg383   2.135       .  S
O370       Mg400   2.371       .  S
C371        O384   1.280       .  A
C371        O376   1.274       .  A
C371       C2437   1.499       .  S
C372        O399   1.268       .  A
C372       C2397   1.486       .  S
Mg373       O380   2.117       .  S
Mg373       O381   2.146       .  S
Mg373       O374   2.280       .  S
Mg373       O375   2.295       .  S
Mg373       O402   2.214       .  S
O375        C379   1.272       .  A
O376       Mg383   2.299       .  S
O377        C396   1.278       .  A
O378        C398   1.284       .  A
O378       Mg394   2.372       .  S
O380       Mg394   2.141       .  S
O380        C391   1.239       .  S
O381       Mg400   2.154       .  S
O382       Mg394   2.313       .  S
Mg383       O399   2.221       .  S
O384       Mg400   2.325       .  S
H385        C390   1.082       .  S
O386       Mg394   2.132       .  S
O386        C389   1.238       .  S
H387        C389   1.082       .  S
H388        C391   1.081       .  S
O393       Mg400   2.310       .  S
C396        O401   1.276       .  A
C396       C2417   1.485       .  S
O397        C398   1.273       .  A
C398       C2757   1.489       .  S
O403       Mg405   2.136       .  S
O403       Mg411   2.133       .  S
O403        C438   1.241       .  S
C404        O417   1.238       .  S
C404        O441   1.274       .  A
C404        H443   1.081       .  S
Mg405       O434   2.141       .  S
Mg405       O449   2.281       .  S
Mg405       O445   2.241       .  S
Mg405       O416   2.285       .  S
O406       Mg448   2.153       .  S
O406       Mg431   2.147       .  S
O406        C427   1.240       .  S
O407        C438   1.276       .  A
O407       Mg431   2.316       .  S
C408        O410   1.280       .  A
C408        O422   1.270       .  A
C408       C2306   1.493       .  S
O409        C437   1.275       .  A
O409       Mg411   2.308       .  S
O410       Mg442   2.336       .  S
Mg411       O417   2.162       .  S
Mg411       O425   2.333       .  S
Mg411       O413   2.385       .  S
C412        O450   1.262       .  A
C412        O418   1.285       .  A
C412       C2337   1.495       .  S
O413        C420   1.285       .  A
H414        C427   1.082       .  S
C415        O429   1.240       .  S
C415        O430   1.274       .  A
C415        H440   1.084       .  S
O416        C439   1.269       .  A
O417       Mg431   2.117       .  S
O418       Mg448   2.403       .  S
C419        O432   1.278       .  A
C419        O424   1.279       .  A
C419       C2277   1.487       .  S
C420        O447   1.272       .  A
C420       C2566   1.503       .  S
Mg421       O428   2.104       .  S
Mg421       O429   2.137       .  S
Mg421       O422   2.275       .  S
Mg421       O423   2.298       .  S
Mg421       O450   2.182       .  S
O423        C427   1.273       .  A
O424       Mg431   2.335       .  S
O425        C444   1.280       .  A
O426        C446   1.285       .  A
O426       Mg442   2.377       .  S
O428       Mg442   2.139       .  S
O428        C439   1.237       .  S
O429       Mg448   2.146       .  S
O430       Mg442   2.305       .  S
Mg431       O447   2.266       .  S
O432       Mg448   2.301       .  S
H433        C438   1.080       .  S
O434       Mg442   2.139       .  S
O434        C437   1.242       .  S
H435        C437   1.082       .  S
H436        C439   1.080       .  S
O441       Mg448   2.317       .  S
C444        O449   1.271       .  A
C444       C2706   1.502       .  S
O445        C446   1.271       .  A
C446       C2326   1.485       .  S
C451       C2266   1.500       .  S
C451        N452   1.368   1_455  A
C451        N456   1.371       .  A
N452        C453   1.362       .  A
C453       C3237   1.475       .  S
C453        N454   1.348   1_655  A
N454        C455   1.349       .  A
C455       C2297   1.479       .  S
C455        N456   1.366       .  A
C457       C2237   1.494       .  S
C457        N458   1.368       .  A
C457        N462   1.369       .  A
N458        C459   1.363       .  A
C459       C2377   1.479       .  S
C459        N460   1.352       .  A
N460        C461   1.350       .  A
C461       C2286   1.482       .  S
C461        N462   1.364       .  A
C463       C2217   1.501       .  S
C463        N464   1.374       .  A
C463        N468   1.370       .  A
N464        C465   1.369       .  A
C465       C2446   1.497       .  S
C465        N466   1.349       .  A
N466        C467   1.347       .  A
C467       C2346   1.479       .  S
C467        N468   1.364       .  A
C469       C2206   1.493       .  S
C469        N470   1.368       .  A
C469        N474   1.368   1_655  A
N470        C471   1.364       .  A
C471       C3226   1.480       .  S
C471        N472   1.349       .  A
N472        C473   1.351   1_655  A
C473       C2317   1.487       .  S
C473        N474   1.364       .  A
C475       C2186   1.488       .  S
C475        N476   1.368       .  A
C475        N480   1.364   1_565  A
N476        C477   1.364       .  A
C477       C2366   1.479       .  S
C477        N478   1.351       .  A
N478        C479   1.351   1_565  A
C479       C2877   1.473       .  S
C479        N480   1.360       .  A
C481       C2157   1.482       .  S
C481        N482   1.369       .  A
C481        N486   1.368   1_554  A
N482        C483   1.362       .  A
C483       C3157   1.475       .  S
C483        N484   1.345       .  A
N484        C485   1.344   1_554  A
C485       C2946   1.473       .  S
C485        N486   1.361       .  A
C487       C2146   1.490       .  S
C487        N488   1.368       .  A
C487        N492   1.369       .  A
N488        C489   1.364       .  A
C489       C3437   1.484       .  S
C489        N490   1.350       .  A
N490        C491   1.349       .  A
C491       C2426   1.476       .  S
C491        N492   1.363       .  A
C493       C2126   1.484       .  S
C493        N494   1.367       .  A
C493        N498   1.366       .  A
N494        C495   1.363       .  A
C495       C3426   1.483       .  S
C495        N496   1.351       .  A
N496        C497   1.350       .  A
C497       C2406   1.477       .  S
C497        N498   1.360       .  A
C499       C2106   1.499       .  S
C499        N500   1.372       .  A
C499        N504   1.370       .  A
N500        C501   1.365       .  A
C501       C3306   1.481       .  S
C501        N502   1.347       .  A
N502        C503   1.346       .  A
C503       C3366   1.480       .  S
C503        N504   1.362       .  A
C505       C2077   1.480       .  S
C505        N506   1.365       .  A
C505        N510   1.364       .  A
N506        C507   1.360       .  A
C507       C3346   1.471       .  S
C507        N508   1.350       .  A
N508        C509   1.351       .  A
C509       C3006   1.471       .  S
C509        N510   1.360       .  A
C511       C2057   1.507       .  S
C511        N512   1.372       .  A
C511        N516   1.372       .  A
N512        C513   1.366       .  A
C513       C3406   1.484       .  S
C513        N514   1.348       .  A
N514        C515   1.351       .  A
C515       C2977   1.493       .  S
C515        N516   1.366       .  A
C517       C2037   1.490       .  S
C517        N518   1.371       .  A
C517        N522   1.366       .  A
N518        C519   1.367       .  A
C519       C3386   1.485       .  S
C519        N520   1.348       .  A
N520        C521   1.347       .  A
C521       C3286   1.471       .  S
C521        N522   1.360       .  A
C523       C2017   1.508       .  S
C523        N524   1.372       .  A
C523        N528   1.368       .  A
N524        C525   1.367       .  A
C525       C3326   1.484       .  S
C525        N526   1.350       .  A
N526        C527   1.350       .  A
C527       C3197   1.477       .  S
C527        N528   1.360       .  A
O529       Mg531   2.141       .  S
O529       Mg537   2.140       .  S
O529        C564   1.240       .  S
C530        O543   1.239       .  S
C530        O567   1.273       .  A
C530        H569   1.079       .  S
Mg531       O560   2.153       .  S
Mg531       O575   2.363       .  S
Mg531       O571   2.306       .  S
Mg531       O542   2.302       .  S
O532       Mg574   2.142       .  S
O532       Mg557   2.159       .  S
O532        C553   1.238       .  S
O533        C564   1.275       .  A
O533       Mg557   2.309       .  S
C534        O536   1.269       .  A
C534        O548   1.285       .  A
C534       C1977   1.492       .  S
O535        C563   1.269       .  A
O535       Mg537   2.288       .  S
O536       Mg568   2.225       .  S
Mg537       O543   2.116       .  S
Mg537       O551   2.205       .  S
Mg537       O539   2.267       .  S
C538        O576   1.280       .  A
C538        O544   1.276       .  A
C538       C1897   1.507       .  S
O539        C546   1.269       .  A
H540        C553   1.081       .  S
C541        O555   1.238       .  S
C541        O556   1.271       .  A
C541        H566   1.083       .  S
O542        C565   1.272       .  A
O543       Mg557   2.138       .  S
O544       Mg574   2.308       .  S
C545        O558   1.271       .  A
C545        O550   1.279       .  A
C545       C1957   1.477       .  S
C546        O573   1.277       .  A
C546       C1997   1.498       .  S
Mg547       O554   2.147       .  S
Mg547       O555   2.150       .  S
Mg547       O548   2.377       .  S
Mg547       O549   2.308       .  S
Mg547       O576   2.319       .  S
O549        C553   1.273       .  A
O550       Mg557   2.333       .  S
O551        C570   1.266       .  A
O552        C572   1.272       .  A
O552       Mg568   2.276       .  S
O554       Mg568   2.145       .  S
O554        C565   1.238       .  S
O555       Mg574   2.123       .  S
O556       Mg568   2.289       .  S
Mg557       O573   2.326       .  S
O558       Mg574   2.239       .  S
H559        C564   1.079       .  S
O560       Mg568   2.124       .  S
O560        C563   1.236       .  S
H561        C563   1.081       .  S
H562        C565   1.083       .  S
O567       Mg574   2.301       .  S
C570        O575   1.282       .  A
C570       C1917   1.478       .  S
O571        C572   1.277       .  A
C572       C1946   1.485       .  S
O577       Mg579   2.149       .  S
O577       Mg585   2.139       .  S
O577        C612   1.240       .  S
C578        O591   1.238       .  S
C578        O615   1.271       .  A
C578        H617   1.080       .  S
Mg579       O608   2.150       .  S
Mg579       O623   2.356       .  S
Mg579       O619   2.308       .  S
Mg579       O590   2.304       .  S
O580       Mg622   2.120       .  S
O580       Mg605   2.154       .  S
O580        C601   1.241       .  S
O581        C612   1.275       .  A
O581       Mg605   2.312       .  S
C582        O584   1.270       .  A
C582        O596   1.283       .  A
C582       C1857   1.488       .  S
O583        C611   1.272       .  A
O583       Mg585   2.292       .  S
O584       Mg616   2.234       .  S
Mg585       O591   2.117       .  S
Mg585       O599   2.222       .  S
Mg585       O587   2.303       .  S
C586        O624   1.275       .  A
C586        O592   1.268       .  A
C586       C1846   1.495       .  S
O587        C594   1.275       .  A
H588        C601   1.080       .  S
C589        O603   1.238       .  S
C589        O604   1.272       .  A
C589        H614   1.081       .  S
O590        C613   1.273       .  A
O591       Mg605   2.132       .  S
O592       Mg622   2.265       .  S
C593        O606   1.267       .  A
C593        O598   1.288       .  A
C593       C1786   1.494       .  S
C594        O621   1.282       .  A
C594       C1806   1.494       .  S
Mg595       O602   2.140       .  S
Mg595       O603   2.137       .  S
Mg595       O596   2.370       .  S
Mg595       O597   2.323       .  S
Mg595       O624   2.308       .  S
O597        C601   1.277       .  A
O598       Mg605   2.412       .  S
O599        C618   1.268       .  A
O600        C620   1.273       .  A
O600       Mg616   2.293       .  S
O602       Mg616   2.137       .  S
O602        C613   1.239       .  S
O603       Mg622   2.135       .  S
O604       Mg616   2.303       .  S
Mg605       O621   2.330       .  S
O606       Mg622   2.225       .  S
H607        C612   1.082       .  S
O608       Mg616   2.123       .  S
O608        C611   1.239       .  S
H609        C611   1.082       .  S
H610        C613   1.083       .  S
O615       Mg622   2.296       .  S
C618        O623   1.281       .  A
C618       C1886   1.498       .  S
O619        C620   1.278       .  A
C620       C1817   1.496       .  S
C625       C2786   1.501       .  S
C625        N626   1.371       .  A
C625        N630   1.367       .  A
N626        C627   1.365       .  A
C627       C1866   1.479       .  S
C627        N628   1.347       .  A
N628        C629   1.347       .  A
C629       C1757   1.472       .  S
C629        N630   1.360       .  A
O631       Mg633   2.155       .  S
O631       Mg639   2.124       .  S
O631        C666   1.238       .  S
C632        O645   1.240       .  S
C632        O669   1.273       .  A
C632        H671   1.083       .  S
Mg633       O662   2.146       .  S
Mg633       O677   2.344       .  S
Mg633       O673   2.305       .  S
Mg633       O644   2.302       .  S
O634       Mg676   2.145       .  S
O634       Mg659   2.140       .  S
O634        C655   1.238       .  S
O635        C666   1.274       .  A
O635       Mg659   2.320       .  S
C636        O638   1.270       .  A
C636        O650   1.285       .  A
C636       C1677   1.493       .  S
O637        C665   1.274       .  A
O637       Mg639   2.311       .  S
O638       Mg670   2.230       .  S
Mg639       O645   2.125       .  S
Mg639       O653   2.222       .  S
Mg639       O641   2.322       .  S
C640        O678   1.278       .  A
C640        O646   1.271       .  A
C640       C1726   1.485       .  S
O641        C648   1.275       .  A
H642        C655   1.082       .  S
C643        O657   1.237       .  S
C643        O658   1.269       .  A
C643        H668   1.082       .  S
O644        C667   1.273       .  A
O645       Mg659   2.134       .  S
O646       Mg676   2.269       .  S
C647        O660   1.269       .  A
C647        O652   1.282       .  A
C647       C1657   1.491       .  S
C648        O675   1.276       .  A
C648       C1697   1.510       .  S
Mg649       O656   2.132       .  S
Mg649       O657   2.156       .  S
Mg649       O650   2.375       .  S
Mg649       O651   2.299       .  S
Mg649       O678   2.309       .  S
O651        C655   1.272       .  A
O652       Mg659   2.361       .  S
O653        C672   1.267       .  A
O654        C674   1.271       .  A
O654       Mg670   2.278       .  S
O656       Mg670   2.141       .  S
O656        C667   1.239       .  S
O657       Mg676   2.127       .  S
O658       Mg670   2.283       .  S
Mg659       O675   2.306       .  S
O660       Mg676   2.235       .  S
H661        C666   1.080       .  S
O662       Mg670   2.135       .  S
O662        C665   1.240       .  S
H663        C665   1.080       .  S
H664        C667   1.079       .  S
O669       Mg676   2.296       .  S
C672        O677   1.279       .  A
C672       C1766   1.475       .  S
O673        C674   1.277       .  A
C674       C1746   1.486       .  S
C679       C2026   1.506       .  S
C679        N680   1.369       .  A
C679        N684   1.372       .  A
N680        C681   1.363       .  A
C681       C1686   1.482       .  S
C681        N682   1.349       .  A
N682        C683   1.349       .  A
C683       C1637   1.480       .  S
C683        N684   1.366       .  A
C685       C2137   1.501       .  S
C685        N686   1.371       .  A
C685        N690   1.370       .  A
N686        C687   1.364       .  A
C687       C1617   1.480       .  S
C687        N688   1.347       .  A
N688        C689   1.346       .  A
C689       C1597   1.477       .  S
C689        N690   1.363       .  A
O691       Mg693   2.133       .  S
O691       Mg699   2.140       .  S
O691        C726   1.240       .  S
C692        O705   1.239       .  S
C692        O729   1.273       .  A
C692        H731   1.080       .  S
Mg693       O722   2.155       .  S
Mg693       O737   2.367       .  S
Mg693       O733   2.296       .  S
Mg693       O704   2.302       .  S
O694       Mg736   2.124       .  S
O694       Mg719   2.141       .  S
O694        C715   1.242       .  S
O695        C726   1.274       .  A
O695       Mg719   2.300       .  S
C696        O698   1.267       .  A
C696        O710   1.283       .  A
C696       C1646   1.493       .  S
O697        C725   1.271       .  A
O697       Mg699   2.291       .  S
O698       Mg730   2.239       .  S
Mg699       O705   2.118       .  S
Mg699       O713   2.212       .  S
Mg699       O701   2.270       .  S
C700        O738   1.276       .  A
C700        O706   1.274       .  A
C700       C1517   1.499       .  S
O701        C708   1.269       .  A
H702        C715   1.081       .  S
C703        O717   1.241       .  S
C703        O718   1.276       .  A
C703        H728   1.080       .  S
O704        C727   1.271       .  A
O705       Mg719   2.138       .  S
O706       Mg736   2.298       .  S
C707        O720   1.272       .  A
C707        O712   1.284       .  A
C707       C1537   1.489       .  S
C708        O735   1.279       .  A
C708       C1566   1.491       .  S
Mg709       O716   2.130       .  S
Mg709       O717   2.130       .  S
Mg709       O710   2.386       .  S
Mg709       O711   2.312       .  S
Mg709       O738   2.288       .  S
O711        C715   1.276       .  A
O712       Mg719   2.375       .  S
O713        C732   1.267       .  A
O714        C734   1.272       .  A
O714       Mg730   2.286       .  S
O716       Mg730   2.104       .  S
O716        C727   1.236       .  S
O717       Mg736   2.129       .  S
O718       Mg730   2.314       .  S
Mg719       O735   2.323       .  S
O720       Mg736   2.250       .  S
H721        C726   1.082       .  S
O722       Mg730   2.129       .  S
O722        C725   1.239       .  S
H723        C725   1.082       .  S
H724        C727   1.082       .  S
O729       Mg736   2.302       .  S
C732        O737   1.282       .  A
C732       C1626   1.490       .  S
O733        C734   1.277       .  A
C734       C1577   1.478       .  S
C739       C2226   1.499       .  S
C739        N740   1.370       .  A
C739        N744   1.370       .  A
N740        C741   1.366       .  A
C741       C1906   1.484       .  S
C741        N742   1.349       .  A
N742        C743   1.352       .  A
C743       C1666   1.491       .  S
C743        N744   1.366       .  A
O745       Mg747   2.143       .  S
O745       Mg753   2.143       .  S
O745        C780   1.242       .  S
C746        O759   1.237       .  S
C746        O783   1.271       .  A
C746        H785   1.079       .  S
Mg747       O776   2.141       .  S
Mg747       O791   2.347       .  S
Mg747       O787   2.308       .  S
Mg747       O758   2.320       .  S
O748       Mg790   2.113       .  S
O748       Mg773   2.142       .  S
O748        C769   1.241       .  S
O749        C780   1.275       .  A
O749       Mg773   2.308       .  S
C750        O752   1.259       .  A
C750        O764   1.282       .  A
C750       C1497   1.485       .  S
O751        C779   1.272       .  A
O751       Mg753   2.299       .  S
O752       Mg784   2.214       .  S
Mg753       O759   2.108       .  S
Mg753       O767   2.219       .  S
Mg753       O755   2.256       .  S
C754        O792   1.279       .  A
C754        O760   1.269       .  A
C754       C1457   1.484       .  S
O755        C762   1.267       .  A
H756        C769   1.082       .  S
C757        O771   1.238       .  S
C757        O772   1.273       .  A
C757        H782   1.081       .  S
O758        C781   1.274       .  A
O759       Mg773   2.136       .  S
O760       Mg790   2.266       .  S
C761        O774   1.266       .  A
C761        O766   1.285       .  A
C761       C1446   1.488       .  S
C762        O789   1.279       .  A
C762       C1417   1.499       .  S
Mg763       O770   2.161       .  S
Mg763       O771   2.126       .  S
Mg763       O764   2.399       .  S
Mg763       O765   2.313       .  S
Mg763       O792   2.315       .  S
O765        C769   1.276       .  A
O766       Mg773   2.393       .  S
O767        C786   1.267       .  A
O768        C788   1.268       .  A
O768       Mg784   2.272       .  S
O770       Mg784   2.096       .  S
O770        C781   1.238       .  S
O771       Mg790   2.118       .  S
O772       Mg784   2.321       .  S
Mg773       O789   2.318       .  S
O774       Mg790   2.227       .  S
H775        C780   1.082       .  S
O776       Mg784   2.118       .  S
O776        C779   1.239       .  S
H777        C779   1.080       .  S
H778        C781   1.078       .  S
O783       Mg790   2.299       .  S
C786        O791   1.279       .  A
C786       C1477   1.479       .  S
O787        C788   1.275       .  A
C788       C1606   1.501       .  S
C793       C3066   1.482       .  S
C793        N794   1.366       .  A
C793        N798   1.367   1_556  A
N794        C795   1.360       .  A
C795       C1397   1.470       .  S
C795        N796   1.347       .  A
N796        C797   1.348   1_556  A
C797       C1506   1.473       .  S
C797        N798   1.362       .  A
O799       Mg801   2.151       .  S
O799       Mg807   2.145       .  S
O799        C834   1.240       .  S
C800        O813   1.238       .  S
C800        O837   1.272       .  A
C800        H839   1.080       .  S
Mg801       O830   2.142       .  S
Mg801       O845   2.370       .  S
Mg801       O841   2.311       .  S
Mg801       O812   2.314       .  S
O802       Mg844   2.116       .  S
O802       Mg827   2.160       .  S
O802        C823   1.240       .  S
O803        C834   1.275       .  A
O803       Mg827   2.312       .  S
C804        O806   1.269       .  A
C804        O818   1.281       .  A
C804       C1326   1.482       .  S
O805        C833   1.271       .  A
O805       Mg807   2.293       .  S
O806       Mg838   2.232       .  S
Mg807       O813   2.113       .  S
Mg807       O821   2.215       .  S
Mg807       O809   2.306       .  S
C808        O846   1.277       .  A
C808        O814   1.268       .  A
C808       C1377   1.495       .  S
O809        C816   1.275       .  A
H810        C823   1.080       .  S
C811        O825   1.239       .  S
C811        O826   1.272       .  A
C811        H836   1.081       .  S
O812        C835   1.274       .  A
O813       Mg827   2.127       .  S
O814       Mg844   2.259       .  S
C815        O828   1.264       .  A
C815        O820   1.283       .  A
C815       C1366   1.486       .  S
C816        O843   1.279       .  A
C816       C1337   1.495       .  S
Mg817       O824   2.149       .  S
Mg817       O825   2.145       .  S
Mg817       O818   2.360       .  S
Mg817       O819   2.318       .  S
Mg817       O846   2.326       .  S
O819        C823   1.275       .  A
O820       Mg827   2.388       .  S
O821        C840   1.268       .  A
O822        C842   1.272       .  A
O822       Mg838   2.288       .  S
O824       Mg838   2.132       .  S
O824        C835   1.239       .  S
O825       Mg844   2.122       .  S
O826       Mg838   2.299       .  S
Mg827       O843   2.321       .  S
O828       Mg844   2.214       .  S
H829        C834   1.082       .  S
O830       Mg838   2.132       .  S
O830        C833   1.238       .  S
H831        C833   1.081       .  S
H832        C835   1.080       .  S
O837       Mg844   2.301       .  S
C840        O845   1.283       .  A
C840       C1297   1.493       .  S
O841        C842   1.278       .  A
C842       C1286   1.498       .  S
C847       C2737   1.503       .  S
C847        N848   1.373       .  A
C847        N852   1.373       .  A
N848        C849   1.367       .  A
C849       C1386   1.485       .  S
C849        N850   1.346       .  A
N850        C851   1.344       .  A
C851       C1257   1.480       .  S
C851        N852   1.366       .  A
O853       Mg855   2.149       .  S
O853       Mg861   2.124       .  S
O853        C888   1.240       .  S
C854        O867   1.238       .  S
C854        O891   1.272       .  A
C854        H893   1.081       .  S
Mg855       O884   2.134       .  S
Mg855       O899   2.389       .  S
Mg855       O895   2.326       .  S
Mg855       O866   2.317       .  S
O856       Mg898   2.125       .  S
O856       Mg881   2.133       .  S
O856        C877   1.241       .  S
O857        C888   1.275       .  A
O857       Mg881   2.310       .  S
C858        O860   1.266       .  A
C858        O872   1.281       .  A
C858       C1177   1.480       .  S
O859        C887   1.272       .  A
O859       Mg861   2.305       .  S
O860       Mg892   2.222       .  S
Mg861       O867   2.121       .  S
Mg861       O875   2.223       .  S
Mg861       O863   2.270       .  S
C862        O900   1.277       .  A
C862        O868   1.272       .  A
C862       C1266   1.510       .  S
O863        C870   1.270       .  A
H864        C877   1.081       .  S
C865        O879   1.238       .  S
C865        O880   1.272       .  A
C865        H890   1.081       .  S
O866        C889   1.276       .  A
O867       Mg881   2.146       .  S
O868       Mg898   2.292       .  S
C869        O882   1.271       .  A
C869        O874   1.281       .  A
C869       C1206   1.484       .  S
C870        O897   1.274       .  A
C870       C1406   1.485       .  S
Mg871       O878   2.162       .  S
Mg871       O879   2.128       .  S
Mg871       O872   2.365       .  S
Mg871       O873   2.312       .  S
Mg871       O900   2.318       .  S
O873        C877   1.275       .  A
O874       Mg881   2.356       .  S
O875        C894   1.266       .  A
O876        C896   1.271       .  A
O876       Mg892   2.279       .  S
O878       Mg892   2.132       .  S
O878        C889   1.241       .  S
O879       Mg898   2.121       .  S
O880       Mg892   2.304       .  S
Mg881       O897   2.291       .  S
O882       Mg898   2.249       .  S
H883        C888   1.082       .  S
O884       Mg892   2.118       .  S
O884        C887   1.238       .  S
H885        C887   1.081       .  S
H886        C889   1.080       .  S
O891       Mg898   2.297       .  S
C894        O899   1.285       .  A
C894       C1217   1.486       .  S
O895        C896   1.279       .  A
C896       C1237   1.496       .  S
O901       Mg903   2.146       .  S
O901       Mg909   2.140       .  S
O901        C936   1.239       .  S
C902        O915   1.237       .  S
C902        O939   1.270       .  A
C902        H941   1.078       .  S
Mg903       O932   2.147       .  S
Mg903       O947   2.356       .  S
Mg903       O943   2.287       .  S
Mg903       O914   2.304       .  S
O904       Mg946   2.143       .  S
O904       Mg929   2.153       .  S
O904        C925   1.242       .  S
O905        C936   1.273       .  A
O905       Mg929   2.309       .  S
C906        O908   1.271       .  A
C906        O920   1.284       .  A
C906       C1066   1.487       .  S
O907        C935   1.270       .  A
O907       Mg909   2.288       .  S
O908       Mg940   2.246       .  S
Mg909       O915   2.103       .  S
Mg909       O923   2.192       .  S
Mg909       O911   2.259       .  S
C910        O948   1.278       .  A
C910        O916   1.267       .  A
C910       C1086   1.490       .  S
O911        C918   1.268       .  A
H912        C925   1.081       .  S
C913        O927   1.238       .  S
C913        O928   1.272       .  A
C913        H938   1.081       .  S
O914        C937   1.272       .  A
O915       Mg929   2.139       .  S
O916       Mg946   2.253       .  S
C917        O930   1.267       .  A
C917        O922   1.280       .  A
C917       C1117   1.476       .  S
C918        O945   1.277       .  A
C918       C1137   1.490       .  S
Mg919       O926   2.143       .  S
Mg919       O927   2.135       .  S
Mg919       O920   2.378       .  S
Mg919       O921   2.315       .  S
Mg919       O948   2.321       .  S
O921        C925   1.277       .  A
O922       Mg929   2.352       .  S
O923        C942   1.264       .  A
O924        C944   1.275       .  A
O924       Mg940   2.304       .  S
O926       Mg940   2.123       .  S
O926        C937   1.238       .  S
O927       Mg946   2.119       .  S
O928       Mg940   2.302       .  S
Mg929       O945   2.316       .  S
O930       Mg946   2.215       .  S
H931        C936   1.080       .  S
O932       Mg940   2.127       .  S
O932        C935   1.237       .  S
H933        C935   1.082       .  S
H934        C937   1.082       .  S
O939       Mg946   2.290       .  S
C942        O947   1.280       .  A
C942       C1157   1.476       .  S
O943        C944   1.276       .  A
C944       C1097   1.475       .  S
C949       C2257   1.491       .  S
C949        N950   1.369   1_455  A
C949        N954   1.368       .  A
N950        C951   1.364       .  A
C951       C1246   1.480       .  S
C951        N952   1.349       .  A
N952        C953   1.351   1_655  A
C953       C1166   1.483       .  S
C953        N954   1.363       .  A
C955       C2066   1.507       .  S
C955        N956   1.371       .  A
C955        N960   1.375       .  A
N956        C957   1.364       .  A
C957       C1146   1.483       .  S
C957        N958   1.345       .  A
N958        C959   1.346       .  A
C959       C2006   1.491       .  S
C959        N960   1.368       .  A
C961       C2086   1.481       .  S
C961        N962   1.366       .  A
C961        N966   1.366       .  A
N962        C963   1.360       .  A
C963       C1966   1.467       .  S
C963        N964   1.346       .  A
N964        C965   1.346       .  A
C965       C1126   1.468       .  S
C965        N966   1.360       .  A
C967       C2097   1.494       .  S
C967        N968   1.367       .  A
C967        N972   1.370       .  A
N968        C969   1.361       .  A
C969       C1357   1.477       .  S
C969        N970   1.351       .  A
N970        C971   1.352       .  A
C971       C1877   1.485       .  S
C971        N972   1.366       .  A
C973       C2457   1.491       .  S
C973        N974   1.367   1_655  A
C973        N978   1.369       .  A
N974        C975   1.361       .  A
C975       C1937   1.471       .  S
C975        N976   1.347   1_455  A
N976        C977   1.348       .  A
C977       C1306   1.486       .  S
C977        N978   1.366       .  A
C979       C2506   1.498       .  S
C979        N980   1.368   1_655  A
C979        N984   1.371       .  A
N980        C981   1.361       .  A
C981       C1926   1.483       .  S
C981        N982   1.347   1_455  A
N982        C983   1.348       .  A
C983       C1277   1.493       .  S
C983        N984   1.365       .  A
C985       C2117   1.486       .  S
C985        N986   1.366       .  A
C985        N990   1.366       .  A
N986        C987   1.360       .  A
C987       C1586   1.469       .  S
C987        N988   1.348       .  A
N988        C989   1.348       .  A
C989       C1486   1.472       .  S
C989        N990   1.361       .  A
C991       C2677   1.505       .  S
C991        N992   1.372       .  A
C991        N996   1.371   1_545  A
N992        C993   1.366       .  A
C993       C1797   1.481       .  S
C993        N994   1.349       .  A
N994        C995   1.348   1_545  A
C995       C1437   1.479       .  S
C995        N996   1.365       .  A
C997       C2606   1.496       .  S
C997        N998   1.369       .  A
C997       N1002   1.372   1_554  A
N998        C999   1.362       .  A
C999       C1557   1.475       .  S
C999       N1000   1.346       .  A
N1000      C1001   1.346   1_554  A
C1001      C1057   1.481       .  S
C1001      N1002   1.367       .  A
C1003      C2046   1.494       .  S
C1003      N1004   1.366       .  A
C1003      N1008   1.370       .  A
N1004      C1005   1.361       .  A
C1005      C1826   1.477       .  S
C1005      N1006   1.351       .  A
N1006      C1007   1.352       .  A
C1007      C1346   1.482       .  S
C1007      N1008   1.366       .  A
C1009      C3037   1.484       .  S
C1009      N1010   1.365       .  A
C1009      N1014   1.366       .  A
N1010      C1011   1.360       .  A
C1011      C1717   1.468       .  S
C1011      N1012   1.348       .  A
N1012      C1013   1.348       .  A
C1013      C1526   1.470       .  S
C1013      N1014   1.361       .  A
C1015      C2646   1.498       .  S
C1015      N1016   1.372   1_556  A
C1015      N1020   1.368       .  A
N1016      C1017   1.368       .  A
C1017      C1546   1.485       .  S
C1017      N1018   1.348   1_554  A
N1018      C1019   1.347       .  A
C1019      C1077   1.473       .  S
C1019      N1020   1.361       .  A
C1021      C2546   1.506       .  S
C1021      N1022   1.377   1_565  A
C1021      N1026   1.369       .  A
N1022      C1023   1.372       .  A
C1023      C1777   1.498       .  S
C1023      N1024   1.349   1_545  A
N1024      C1025   1.347       .  A
C1025      C1426   1.474       .  S
C1025      N1026   1.361       .  A
C1027      C2806   1.497       .  S
C1027      N1028   1.372       .  A
C1027      N1032   1.370       .  A
N1028      C1029   1.366       .  A
C1029      C1737   1.495       .  S
C1029      N1030   1.347       .  A
N1030      C1031   1.344       .  A
C1031      C1837   1.478       .  S
C1031      N1032   1.362       .  A
C1033      C2246   1.497       .  S
C1033      N1034   1.372       .  A
C1033      N1038   1.369       .  A
N1034      C1035   1.367       .  A
C1035      C1706   1.492       .  S
C1035      N1036   1.350       .  A
N1036      C1037   1.349       .  A
C1037      C1986   1.484       .  S
C1037      N1038   1.364       .  A
C1039      C2197   1.494       .  S
C1039      N1040   1.370       .  A
C1039      N1044   1.370   1_655  A
N1040      C1041   1.365       .  A
C1041      C1226   1.479       .  S
C1041      N1042   1.346       .  A
N1042      C1043   1.346   1_655  A
C1043      C1106   1.479       .  S
C1043      N1044   1.364       .  A
C1045      C2166   1.485       .  S
C1045      N1046   1.369   1_554  A
C1045      N1050   1.363       .  A
N1046      C1047   1.366       .  A
C1047      C1197   1.485       .  S
C1047      N1048   1.352   1_556  A
N1048      C1049   1.351       .  A
C1049      C1466   1.473       .  S
C1049      N1050   1.358       .  A
C1051      C2177   1.487       .  S
C1051      N1052   1.369       .  A
C1051      N1056   1.366   1_545  A
N1052      C1053   1.364       .  A
C1053      C1317   1.477       .  S
C1053      N1054   1.347       .  A
N1054      C1055   1.347   1_545  A
C1055      C1186   1.472       .  S
C1055      N1056   1.361       .  A
C1057      C1058   1.410       .  A
C1057      C1062   1.414       .  A
C1058      C1059   1.413       .  A
C1058     Br1070   1.926       .  S
C1059      C1060   1.412       .  A
C1059     Br1074   1.928       .  S
C1060      C1063   1.492       .  S
C1060      C1061   1.408       .  A
C1061      C1062   1.408       .  A
C1061     Br1069   1.930       .  S
C1062     Br1073   1.932       .  S
C1063      C1064   1.414       .  A
C1063      C1068   1.405       .  A
C1064      C1065   1.417       .  A
C1064     Br1075   1.927       .  S
C1065      C1066   1.411       .  A
C1065     Br1071   1.926       .  S
C1066      C1067   1.416       .  A
C1067      C1068   1.405       .  A
C1067     Br1076   1.931       .  S
C1068     Br1072   1.933       .  S
C1077      C1078   1.410       .  A
C1077      C1082   1.409       .  A
C1078      C1079   1.406       .  A
C1078     Br1090   1.930   1_556  S
C1079      C1080   1.409       .  A
C1079     Br1094   1.930       .  S
C1080      C1083   1.487       .  S
C1080      C1081   1.411       .  A
C1081      C1082   1.410       .  A
C1081     Br1089   1.928       .  S
C1082     Br1093   1.928       .  S
C1083      C1084   1.403       .  A
C1083      C1088   1.411       .  A
C1084      C1085   1.406       .  A
C1084     Br1095   1.933       .  S
C1085      C1086   1.422       .  A
C1085     Br1091   1.932       .  S
C1086      C1087   1.411       .  A
C1087      C1088   1.412       .  A
C1087     Br1096   1.928       .  S
C1088     Br1092   1.929       .  S
C1097      C1098   1.409       .  A
C1097      C1102   1.408       .  A
C1098      C1099   1.406       .  A
C1098     Br1110   1.929       .  S
C1099      C1100   1.409       .  A
C1099     Br1114   1.930       .  S
C1100      C1103   1.488       .  S
C1100      C1101   1.412       .  A
C1101      C1102   1.411       .  A
C1101     Br1109   1.928       .  S
C1102     Br1113   1.928       .  S
C1103      C1104   1.408       .  A
C1103      C1108   1.411       .  A
C1104      C1105   1.406   1_556  A
C1104     Br1115   1.931       .  S
C1105      C1106   1.413       .  A
C1105     Br1111   1.932   1_455  S
C1106      C1107   1.410       .  A
C1107      C1108   1.411   1_554  A
C1107     Br1116   1.927       .  S
C1108     Br1112   1.929       .  S
C1117      C1118   1.414       .  A
C1117      C1122   1.409       .  A
C1118      C1119   1.401       .  A
C1118     Br1130   1.933       .  S
C1119      C1120   1.404       .  A
C1119     Br1134   1.932       .  S
C1120      C1123   1.481       .  S
C1120      C1121   1.412       .  A
C1121      C1122   1.411       .  A
C1121     Br1129   1.928       .  S
C1122     Br1133   1.928       .  S
C1123      C1124   1.407       .  A
C1123      C1128   1.411       .  A
C1124      C1125   1.404       .  A
C1124     Br1135   1.930       .  S
C1125      C1126   1.410       .  A
C1125     Br1131   1.931       .  S
C1126      C1127   1.408       .  A
C1127      C1128   1.408       .  A
C1127     Br1136   1.929       .  S
C1128     Br1132   1.929       .  S
C1137      C1138   1.419       .  A
C1137      C1142   1.414       .  A
C1138      C1139   1.408       .  A
C1138     Br1150   1.935       .  S
C1139      C1140   1.407       .  A
C1139     Br1154   1.931       .  S
C1140      C1143   1.492       .  S
C1140      C1141   1.413       .  A
C1141      C1142   1.412       .  A
C1141     Br1149   1.932       .  S
C1142     Br1153   1.930       .  S
C1143      C1144   1.412       .  A
C1143      C1148   1.408       .  A
C1144      C1145   1.413   1_455  A
C1144     Br1155   1.929       .  S
C1145      C1146   1.411       .  A
C1145     Br1151   1.928       .  S
C1146      C1147   1.415   1_655  A
C1147      C1148   1.407       .  A
C1147     Br1156   1.933       .  S
C1148     Br1152   1.932       .  S
C1157      C1158   1.410       .  A
C1157      C1162   1.414       .  A
C1158      C1159   1.409       .  A
C1158     Br1170   1.930       .  S
C1159      C1160   1.412       .  A
C1159     Br1174   1.929       .  S
C1160      C1163   1.486       .  S
C1160      C1161   1.407       .  A
C1161      C1162   1.405       .  A
C1161     Br1169   1.931       .  S
C1162     Br1173   1.933       .  S
C1163      C1164   1.405       .  A
C1163      C1168   1.412       .  A
C1164      C1165   1.404   1_455  A
C1164     Br1175   1.932   1_455  S
C1165      C1166   1.414   1_655  A
C1165     Br1171   1.926       .  S
C1166      C1167   1.411       .  A
C1167      C1168   1.412       .  A
C1167     Br1176   1.927       .  S
C1168     Br1172   1.929       .  S
C1177      C1178   1.417       .  A
C1177      C1182   1.409       .  A
C1178      C1179   1.404       .  A
C1178     Br1190   1.934       .  S
C1179      C1180   1.404       .  A
C1179     Br1194   1.931   1_655  S
C1180      C1183   1.485       .  S
C1180      C1181   1.413       .  A
C1181      C1182   1.412       .  A
C1181     Br1189   1.929       .  S
C1182     Br1193   1.927       .  S
C1183      C1184   1.407       .  A
C1183      C1188   1.411   1_655  A
C1184      C1185   1.405   1_655  A
C1184     Br1195   1.929       .  S
C1185      C1186   1.411       .  A
C1185     Br1191   1.931   1_565  S
C1186      C1187   1.409       .  A
C1187      C1188   1.409       .  A
C1187     Br1196   1.929       .  S
C1188     Br1192   1.929       .  S
C1197      C1198   1.414   1_545  A
C1197      C1202   1.411       .  A
C1198      C1199   1.409       .  A
C1198     Br1210   1.932   1_566  S
C1199      C1200   1.409       .  A
C1199     Br1214   1.929       .  S
C1200      C1203   1.493       .  S
C1200      C1201   1.412       .  A
C1201      C1202   1.412   1_565  A
C1201     Br1209   1.930       .  S
C1202     Br1213   1.926       .  S
C1203      C1204   1.407       .  A
C1203      C1208   1.413       .  A
C1204      C1205   1.407       .  A
C1204     Br1215   1.931       .  S
C1205      C1206   1.414       .  A
C1205     Br1211   1.931       .  S
C1206      C1207   1.409       .  A
C1207      C1208   1.414       .  A
C1207     Br1216   1.927       .  S
C1208     Br1212   1.928       .  S
C1217      C1218   1.410       .  A
C1217      C1222   1.419       .  A
C1218      C1219   1.415       .  A
C1218     Br1230   1.927       .  S
C1219      C1220   1.413       .  A
C1219     Br1234   1.928       .  S
C1220      C1223   1.490       .  S
C1220      C1221   1.404       .  A
C1221      C1222   1.405       .  A
C1221     Br1229   1.932       .  S
C1222     Br1233   1.934       .  S
C1223      C1224   1.412       .  A
C1223      C1228   1.407       .  A
C1224      C1225   1.412   1_556  A
C1224     Br1235   1.928       .  S
C1225      C1226   1.410       .  A
C1225     Br1231   1.927       .  S
C1226      C1227   1.414       .  A
C1227      C1228   1.407   1_554  A
C1227     Br1236   1.932   1_655  S
C1228     Br1232   1.930       .  S
C1237      C1238   1.414       .  A
C1237      C1242   1.421       .  A
C1238      C1239   1.416       .  A
C1238     Br1250   1.928       .  S
C1239      C1240   1.412       .  A
C1239     Br1254   1.928       .  S
C1240      C1243   1.494       .  S
C1240      C1241   1.405       .  A
C1241      C1242   1.408       .  A
C1241     Br1249   1.934       .  S
C1242     Br1253   1.931       .  S
C1243      C1244   1.412       .  A
C1243      C1248   1.410       .  A
C1244      C1245   1.414       .  A
C1244     Br1255   1.927   1_655  S
C1245      C1246   1.410       .  A
C1245     Br1251   1.927   1_655  S
C1246      C1247   1.408       .  A
C1247      C1248   1.407       .  A
C1247     Br1256   1.927       .  S
C1248     Br1252   1.931       .  S
C1257      C1258   1.410       .  A
C1257      C1262   1.412       .  A
C1258      C1259   1.413       .  A
C1258     Br1270   1.928       .  S
C1259      C1260   1.414       .  A
C1259     Br1274   1.929       .  S
C1260      C1263   1.497       .  S
C1260      C1261   1.410       .  A
C1261      C1262   1.409       .  A
C1261     Br1269   1.930   1_565  S
C1262     Br1273   1.931   1_565  S
C1263      C1264   1.406       .  A
C1263      C1268   1.410       .  A
C1264      C1265   1.410       .  A
C1264     Br1275   1.933       .  S
C1265      C1266   1.426       .  A
C1265     Br1271   1.936       .  S
C1266      C1267   1.425       .  A
C1267      C1268   1.415       .  A
C1267     Br1276   1.933       .  S
C1268     Br1272   1.933       .  S
C1277      C1278   1.414       .  A
C1277      C1282   1.419       .  A
C1278      C1279   1.415       .  A
C1278     Br1290   1.928       .  S
C1279      C1280   1.412       .  A
C1279     Br1294   1.928       .  S
C1280      C1283   1.493       .  S
C1280      C1281   1.406       .  A
C1281      C1282   1.406       .  A
C1281     Br1289   1.932   1_655  S
C1282     Br1293   1.935   1_655  S
C1283      C1284   1.407       .  A
C1283      C1288   1.409       .  A
C1284      C1285   1.411       .  A
C1284     Br1295   1.932       .  S
C1285      C1286   1.422       .  A
C1285     Br1291   1.934       .  S
C1286      C1287   1.419       .  A
C1287      C1288   1.412       .  A
C1287     Br1296   1.933       .  S
C1288     Br1292   1.932       .  S
C1297      C1298   1.420       .  A
C1297      C1302   1.417       .  A
C1298      C1299   1.406       .  A
C1298     Br1310   1.936       .  S
C1299      C1300   1.405       .  A
C1299     Br1314   1.933       .  S
C1300      C1303   1.490       .  S
C1300      C1301   1.410       .  A
C1301      C1302   1.414       .  A
C1301     Br1309   1.930       .  S
C1302     Br1313   1.930       .  S
C1303      C1304   1.411       .  A
C1303      C1308   1.406       .  A
C1304      C1305   1.413       .  A
C1304     Br1315   1.928       .  S
C1305      C1306   1.412       .  A
C1305     Br1311   1.929       .  S
C1306      C1307   1.417       .  A
C1307      C1308   1.406       .  A
C1307     Br1316   1.932       .  S
C1308     Br1312   1.932       .  S
C1317      C1318   1.409       .  A
C1317      C1322   1.413       .  A
C1318      C1319   1.411       .  A
C1318     Br1330   1.928       .  S
C1319      C1320   1.412   1_455  A
C1319     Br1334   1.929       .  S
C1320      C1323   1.488       .  S
C1320      C1321   1.407       .  A
C1321      C1322   1.407   1_655  A
C1321     Br1329   1.930   1_545  S
C1322     Br1333   1.932   1_545  S
C1323      C1324   1.412       .  A
C1323      C1328   1.406       .  A
C1324      C1325   1.412       .  A
C1324     Br1335   1.928       .  S
C1325      C1326   1.409       .  A
C1325     Br1331   1.927       .  S
C1326      C1327   1.415       .  A
C1327      C1328   1.406       .  A
C1327     Br1336   1.932       .  S
C1328     Br1332   1.931       .  S
C1337      C1338   1.412       .  A
C1337      C1342   1.418       .  A
C1338      C1339   1.415       .  A
C1338     Br1350   1.928       .  S
C1339      C1340   1.413       .  A
C1339     Br1354   1.928       .  S
C1340      C1343   1.497       .  S
C1340      C1341   1.407       .  A
C1341      C1342   1.411       .  A
C1341     Br1349   1.931       .  S
C1342     Br1353   1.929       .  S
C1343      C1344   1.413       .  A
C1343      C1348   1.411       .  A
C1344      C1345   1.414       .  A
C1344     Br1355   1.928       .  S
C1345      C1346   1.410       .  A
C1345     Br1351   1.927       .  S
C1346      C1347   1.410       .  A
C1347      C1348   1.410       .  A
C1347     Br1356   1.929       .  S
C1348     Br1352   1.928       .  S
C1357      C1358   1.409       .  A
C1357      C1362   1.407       .  A
C1358      C1359   1.412   1_565  A
C1358     Br1370   1.926       .  S
C1359      C1360   1.413       .  A
C1359     Br1374   1.928       .  S
C1360      C1363   1.490       .  S
C1360      C1361   1.410       .  A
C1361      C1362   1.404   1_545  A
C1361     Br1369   1.931       .  S
C1362     Br1373   1.926       .  S
C1363      C1364   1.414       .  A
C1363      C1368   1.406       .  A
C1364      C1365   1.415       .  A
C1364     Br1375   1.928       .  S
C1365      C1366   1.410       .  A
C1365     Br1371   1.927       .  S
C1366      C1367   1.419       .  A
C1367      C1368   1.404       .  A
C1367     Br1376   1.936       .  S
C1368     Br1372   1.934       .  S
C1377      C1378   1.420       .  A
C1377      C1382   1.416       .  A
C1378      C1379   1.407       .  A
C1378     Br1390   1.935       .  S
C1379      C1380   1.407       .  A
C1379     Br1394   1.932       .  S
C1380      C1383   1.496       .  S
C1380      C1381   1.414       .  A
C1381      C1382   1.415       .  A
C1381     Br1389   1.931       .  S
C1382     Br1393   1.930       .  S
C1383      C1384   1.414       .  A
C1383      C1388   1.409   1_545  A
C1384      C1385   1.415       .  A
C1384     Br1395   1.928       .  S
C1385      C1386   1.411   1_545  A
C1385     Br1391   1.927       .  S
C1386      C1387   1.414       .  A
C1387      C1388   1.407       .  A
C1387     Br1396   1.932       .  S
C1388     Br1392   1.932       .  S
C1397      C1398   1.410       .  A
C1397      C1402   1.408       .  A
C1398      C1399   1.405       .  A
C1398     Br1410   1.931       .  S
C1399      C1400   1.408       .  A
C1399     Br1414   1.930       .  S
C1400      C1403   1.484       .  S
C1400      C1401   1.411       .  A
C1401      C1402   1.408       .  A
C1401     Br1409   1.929       .  S
C1402     Br1413   1.928   1_556  S
C1403      C1404   1.404       .  A
C1403      C1408   1.411       .  A
C1404      C1405   1.404       .  A
C1404     Br1415   1.934       .  S
C1405      C1406   1.419       .  A
C1405     Br1411   1.933       .  S
C1406      C1407   1.413       .  A
C1407      C1408   1.411       .  A
C1407     Br1416   1.930       .  S
C1408     Br1412   1.929       .  S
C1417      C1418   1.429       .  A
C1417      C1422   1.415       .  A
C1418      C1419   1.407       .  A
C1418     Br1430   1.936       .  S
C1419      C1420   1.401       .  A
C1419     Br1434   1.936       .  S
C1420      C1423   1.489       .  S
C1420      C1421   1.411       .  A
C1421      C1422   1.414       .  A
C1421     Br1429   1.929       .  S
C1422     Br1433   1.930       .  S
C1423      C1424   1.411       .  A
C1423      C1428   1.409       .  A
C1424      C1425   1.409       .  A
C1424     Br1435   1.928       .  S
C1425      C1426   1.407       .  A
C1425     Br1431   1.927       .  S
C1426      C1427   1.410       .  A
C1427      C1428   1.409       .  A
C1427     Br1436   1.926       .  S
C1428     Br1432   1.929       .  S
C1437      C1438   1.410       .  A
C1437      C1442   1.411       .  A
C1438      C1439   1.411       .  A
C1438     Br1450   1.925   1_565  S
C1439      C1440   1.410       .  A
C1439     Br1454   1.929       .  S
C1440      C1443   1.491       .  S
C1440      C1441   1.409       .  A
C1441      C1442   1.409       .  A
C1441     Br1449   1.930       .  S
C1442     Br1453   1.929       .  S
C1443      C1444   1.413       .  A
C1443      C1448   1.404       .  A
C1444      C1445   1.415       .  A
C1444     Br1455   1.928       .  S
C1445      C1446   1.410       .  A
C1445     Br1451   1.926       .  S
C1446      C1447   1.420       .  A
C1447      C1448   1.406       .  A
C1447     Br1456   1.934       .  S
C1448     Br1452   1.933       .  S
C1457      C1458   1.419       .  A
C1457      C1462   1.409       .  A
C1458      C1459   1.408       .  A
C1458     Br1470   1.929       .  S
C1459      C1460   1.404       .  A
C1459     Br1474   1.932       .  S
C1460      C1463   1.485       .  S
C1460      C1461   1.412       .  A
C1461      C1462   1.409       .  A
C1461     Br1469   1.931       .  S
C1462     Br1473   1.928       .  S
C1463      C1464   1.407       .  A
C1463      C1468   1.411   1_565  A
C1464      C1465   1.405   1_565  A
C1464     Br1475   1.929       .  S
C1465      C1466   1.409       .  A
C1465     Br1471   1.930   1_554  S
C1466      C1467   1.409       .  A
C1467      C1468   1.409       .  A
C1467     Br1476   1.927       .  S
C1468     Br1472   1.929   1_545  S
C1477      C1478   1.415       .  A
C1477      C1482   1.410       .  A
C1478      C1479   1.404       .  A
C1478     Br1490   1.934       .  S
C1479      C1480   1.405       .  A
C1479     Br1494   1.931       .  S
C1480      C1483   1.484       .  S
C1480      C1481   1.411       .  A
C1481      C1482   1.411       .  A
C1481     Br1489   1.929       .  S
C1482     Br1493   1.929       .  S
C1483      C1484   1.408       .  A
C1483      C1488   1.411       .  A
C1484      C1485   1.406       .  A
C1484     Br1495   1.930       .  S
C1485      C1486   1.411       .  A
C1485     Br1491   1.931       .  S
C1486      C1487   1.408       .  A
C1487      C1488   1.409       .  A
C1487     Br1496   1.929       .  S
C1488     Br1492   1.929       .  S
C1497      C1498   1.409       .  A
C1497      C1502   1.420       .  A
C1498      C1499   1.414       .  A
C1498     Br1510   1.926       .  S
C1499      C1500   1.413       .  A
C1499     Br1514   1.927       .  S
C1500      C1503   1.485       .  S
C1500      C1501   1.402       .  A
C1501      C1502   1.403       .  A
C1501     Br1509   1.934       .  S
C1502     Br1513   1.933       .  S
C1503      C1504   1.411       .  A
C1503      C1508   1.407       .  A
C1504      C1505   1.411       .  A
C1504     Br1515   1.928       .  S
C1505      C1506   1.409       .  A
C1505     Br1511   1.928   1_554  S
C1506      C1507   1.411       .  A
C1507      C1508   1.404       .  A
C1507     Br1516   1.931       .  S
C1508     Br1512   1.930       .  S
C1517      C1518   1.426       .  A
C1517      C1522   1.419       .  A
C1518      C1519   1.407       .  A
C1518     Br1530   1.933       .  S
C1519      C1520   1.402       .  A
C1519     Br1534   1.935       .  S
C1520      C1523   1.487       .  S
C1520      C1521   1.409       .  A
C1521      C1522   1.413       .  A
C1521     Br1529   1.931       .  S
C1522     Br1533   1.931       .  S
C1523      C1524   1.410       .  A
C1523      C1528   1.409       .  A
C1524      C1525   1.409       .  A
C1524     Br1535   1.928       .  S
C1525      C1526   1.409       .  A
C1525     Br1531   1.929       .  S
C1526      C1527   1.408       .  A
C1527      C1528   1.406       .  A
C1527     Br1536   1.929       .  S
C1528     Br1532   1.929       .  S
C1537      C1538   1.417       .  A
C1537      C1542   1.411       .  A
C1538      C1539   1.407       .  A
C1538     Br1550   1.932       .  S
C1539      C1540   1.406       .  A
C1539     Br1554   1.932       .  S
C1540      C1543   1.494       .  S
C1540      C1541   1.414       .  A
C1541      C1542   1.416       .  A
C1541     Br1549   1.927       .  S
C1542     Br1553   1.927       .  S
C1543      C1544   1.408       .  A
C1543      C1548   1.412       .  A
C1544      C1545   1.409       .  A
C1544     Br1555   1.930       .  S
C1545      C1546   1.416       .  A
C1545     Br1551   1.933   1_554  S
C1546      C1547   1.411       .  A
C1547      C1548   1.414       .  A
C1547     Br1556   1.928       .  S
C1548     Br1552   1.928       .  S
C1557      C1558   1.412       .  A
C1557      C1562   1.409       .  A
C1558      C1559   1.406       .  A
C1558     Br1570   1.932       .  S
C1559      C1560   1.408       .  A
C1559     Br1574   1.930       .  S
C1560      C1563   1.488       .  S
C1560      C1561   1.411       .  A
C1561      C1562   1.411       .  A
C1561     Br1569   1.929       .  S
C1562     Br1573   1.926       .  S
C1563      C1564   1.403       .  A
C1563      C1568   1.412       .  A
C1564      C1565   1.406       .  A
C1564     Br1575   1.934       .  S
C1565      C1566   1.421       .  A
C1565     Br1571   1.927       .  S
C1566      C1567   1.412       .  A
C1567      C1568   1.414       .  A
C1567     Br1576   1.928       .  S
C1568     Br1572   1.929       .  S
C1577      C1578   1.408       .  A
C1577      C1582   1.414       .  A
C1578      C1579   1.410       .  A
C1578     Br1590   1.928       .  S
C1579      C1580   1.412       .  A
C1579     Br1594   1.928       .  S
C1580      C1583   1.483       .  S
C1580      C1581   1.405       .  A
C1581      C1582   1.405       .  A
C1581     Br1589   1.932       .  S
C1582     Br1593   1.927       .  S
C1583      C1584   1.410       .  A
C1583      C1588   1.409       .  A
C1584      C1585   1.407       .  A
C1584     Br1595   1.929       .  S
C1585      C1586   1.408       .  A
C1585     Br1591   1.928       .  S
C1586      C1587   1.409       .  A
C1587      C1588   1.406       .  A
C1587     Br1596   1.929       .  S
C1588     Br1592   1.929       .  S
C1597      C1598   1.411   1_556  A
C1597      C1602   1.409       .  A
C1598      C1599   1.406       .  A
C1598     Br1610   1.932       .  S
C1599      C1600   1.409       .  A
C1599     Br1614   1.931       .  S
C1600      C1603   1.491       .  S
C1600      C1601   1.413       .  A
C1601      C1602   1.412   1_554  A
C1601     Br1609   1.928       .  S
C1602     Br1613   1.928       .  S
C1603      C1604   1.410       .  A
C1603      C1608   1.405       .  A
C1604      C1605   1.413       .  A
C1604     Br1615   1.932       .  S
C1605      C1606   1.420       .  A
C1605     Br1611   1.932       .  S
C1606      C1607   1.424       .  A
C1607      C1608   1.407       .  A
C1607     Br1616   1.937       .  S
C1608     Br1612   1.934       .  S
C1617      C1618   1.410       .  A
C1617      C1622   1.413   1_556  A
C1618      C1619   1.412   1_556  A
C1618     Br1630   1.928       .  S
C1619      C1620   1.413       .  A
C1619     Br1634   1.929       .  S
C1620      C1623   1.491       .  S
C1620      C1621   1.408       .  A
C1621      C1622   1.406       .  A
C1621     Br1629   1.930       .  S
C1622     Br1633   1.932       .  S
C1623      C1624   1.406       .  A
C1623      C1628   1.412       .  A
C1624      C1625   1.406       .  A
C1624     Br1635   1.932       .  S
C1625      C1626   1.418       .  A
C1625     Br1631   1.933       .  S
C1626      C1627   1.414       .  A
C1627      C1628   1.414       .  A
C1627     Br1636   1.929       .  S
C1628     Br1632   1.929       .  S
C1637      C1638   1.409       .  A
C1637      C1642   1.410       .  A
C1638      C1639   1.409       .  A
C1638     Br1650   1.927       .  S
C1639      C1640   1.411       .  A
C1639     Br1654   1.930       .  S
C1640      C1643   1.495       .  S
C1640      C1641   1.412       .  A
C1641      C1642   1.412       .  A
C1641     Br1649   1.928       .  S
C1642     Br1653   1.926       .  S
C1643      C1644   1.405       .  A
C1643      C1648   1.415       .  A
C1644      C1645   1.406       .  A
C1644     Br1655   1.933       .  S
C1645      C1646   1.419       .  A
C1645     Br1651   1.935       .  S
C1646      C1647   1.412       .  A
C1647      C1648   1.417       .  A
C1647     Br1656   1.927       .  S
C1648     Br1652   1.928       .  S
C1657      C1658   1.417       .  A
C1657      C1662   1.414       .  A
C1658      C1659   1.409       .  A
C1658     Br1670   1.933       .  S
C1659      C1660   1.408       .  A
C1659     Br1674   1.930       .  S
C1660      C1663   1.494       .  S
C1660      C1661   1.411       .  A
C1661      C1662   1.413       .  A
C1661     Br1669   1.930       .  S
C1662     Br1673   1.930       .  S
C1663      C1664   1.412       .  A
C1663      C1668   1.407       .  A
C1664      C1665   1.415       .  A
C1664     Br1675   1.928       .  S
C1665      C1666   1.413       .  A
C1665     Br1671   1.928       .  S
C1666      C1667   1.418       .  A
C1667      C1668   1.408       .  A
C1667     Br1676   1.934       .  S
C1668     Br1672   1.931       .  S
C1677      C1678   1.415       .  A
C1677      C1682   1.419       .  A
C1678      C1679   1.414       .  A
C1678     Br1690   1.929       .  S
C1679      C1680   1.411       .  A
C1679     Br1694   1.929       .  S
C1680      C1683   1.491       .  S
C1680      C1681   1.406       .  A
C1681      C1682   1.407       .  A
C1681     Br1689   1.932       .  S
C1682     Br1693   1.934       .  S
C1683      C1684   1.408       .  A
C1683      C1688   1.412       .  A
C1684      C1685   1.407       .  A
C1684     Br1695   1.930       .  S
C1685      C1686   1.413       .  A
C1685     Br1691   1.929       .  S
C1686      C1687   1.410       .  A
C1687      C1688   1.412       .  A
C1687     Br1696   1.928       .  S
C1688     Br1692   1.928       .  S
C1697      C1698   1.424       .  A
C1697      C1702   1.426       .  A
C1698      C1699   1.414       .  A
C1698     Br1710   1.934       .  S
C1699      C1700   1.408       .  A
C1699     Br1714   1.933       .  S
C1700      C1703   1.499       .  S
C1700      C1701   1.407       .  A
C1701      C1702   1.415       .  A
C1701     Br1709   1.932       .  S
C1702     Br1713   1.935       .  S
C1703      C1704   1.408       .  A
C1703      C1708   1.414       .  A
C1704      C1705   1.408       .  A
C1704     Br1715   1.931       .  S
C1705      C1706   1.417       .  A
C1705     Br1711   1.934       .  S
C1706      C1707   1.413       .  A
C1707      C1708   1.417       .  A
C1707     Br1716   1.928       .  S
C1708     Br1712   1.927       .  S
C1717      C1718   1.407       .  A
C1717      C1722   1.408       .  A
C1718      C1719   1.407       .  A
C1718     Br1730   1.928       .  S
C1719      C1720   1.410       .  A
C1719     Br1734   1.929       .  S
C1720      C1723   1.483       .  S
C1720      C1721   1.409       .  A
C1721      C1722   1.406       .  A
C1721     Br1729   1.929       .  S
C1722     Br1733   1.929       .  S
C1723      C1724   1.411       .  A
C1723      C1728   1.402       .  A
C1724      C1725   1.412       .  A
C1724     Br1735   1.929       .  S
C1725      C1726   1.412       .  A
C1725     Br1731   1.928       .  S
C1726      C1727   1.419       .  A
C1727      C1728   1.403       .  A
C1727     Br1736   1.930       .  S
C1728     Br1732   1.934       .  S
C1737      C1738   1.421       .  A
C1737      C1742   1.415       .  A
C1738      C1739   1.405       .  A
C1738     Br1750   1.937       .  S
C1739      C1740   1.405       .  A
C1739     Br1754   1.933       .  S
C1740      C1743   1.491       .  S
C1740      C1741   1.412       .  A
C1741      C1742   1.415       .  A
C1741     Br1749   1.928       .  S
C1742     Br1753   1.927       .  S
C1743      C1744   1.411       .  A
C1743      C1748   1.408       .  A
C1744      C1745   1.411       .  A
C1744     Br1755   1.931       .  S
C1745      C1746   1.414       .  A
C1745     Br1751   1.931       .  S
C1746      C1747   1.414       .  A
C1747      C1748   1.409       .  A
C1747     Br1756   1.931       .  S
C1748     Br1752   1.930       .  S
C1757      C1758   1.412       .  A
C1757      C1762   1.408       .  A
C1758      C1759   1.404       .  A
C1758     Br1770   1.931       .  S
C1759      C1760   1.406       .  A
C1759     Br1774   1.930       .  S
C1760      C1763   1.482       .  S
C1760      C1761   1.410       .  A
C1761      C1762   1.409       .  A
C1761     Br1769   1.929       .  S
C1762     Br1773   1.927       .  S
C1763      C1764   1.405       .  A
C1763      C1768   1.412       .  A
C1764      C1765   1.404       .  A
C1764     Br1775   1.931       .  S
C1765      C1766   1.414       .  A
C1765     Br1771   1.933       .  S
C1766      C1767   1.408       .  A
C1767      C1768   1.409       .  A
C1767     Br1776   1.928       .  S
C1768     Br1772   1.929       .  S
C1777      C1778   1.417       .  A
C1777      C1782   1.413       .  A
C1778      C1779   1.408       .  A
C1778     Br1790   1.930   1_545  S
C1779      C1780   1.408       .  A
C1779     Br1794   1.933       .  S
C1780      C1783   1.503       .  S
C1780      C1781   1.415       .  A
C1781      C1782   1.420       .  A
C1781     Br1789   1.927       .  S
C1782     Br1793   1.925       .  S
C1783      C1784   1.408       .  A
C1783      C1788   1.417       .  A
C1784      C1785   1.407       .  A
C1784     Br1795   1.933       .  S
C1785      C1786   1.417       .  A
C1785     Br1791   1.934       .  S
C1786      C1787   1.411       .  A
C1787      C1788   1.421       .  A
C1787     Br1796   1.925       .  S
C1788     Br1792   1.926       .  S
C1797      C1798   1.412       .  A
C1797      C1802   1.410       .  A
C1798      C1799   1.410       .  A
C1798     Br1810   1.930       .  S
C1799      C1800   1.410       .  A
C1799     Br1814   1.929       .  S
C1800      C1803   1.496       .  S
C1800      C1801   1.412       .  A
C1801      C1802   1.413       .  A
C1801     Br1809   1.928       .  S
C1802     Br1813   1.927   1_545  S
C1803      C1804   1.407       .  A
C1803      C1808   1.413       .  A
C1804      C1805   1.411       .  A
C1804     Br1815   1.931       .  S
C1805      C1806   1.418       .  A
C1805     Br1811   1.928       .  S
C1806      C1807   1.411       .  A
C1807      C1808   1.415       .  A
C1807     Br1816   1.927       .  S
C1808     Br1812   1.929       .  S
C1817      C1818   1.415       .  A
C1817      C1822   1.423       .  A
C1818      C1819   1.412       .  A
C1818     Br1830   1.929       .  S
C1819      C1820   1.410       .  A
C1819     Br1834   1.930       .  S
C1820      C1823   1.492       .  S
C1820      C1821   1.406       .  A
C1821      C1822   1.410       .  A
C1821     Br1829   1.932       .  S
C1822     Br1833   1.934       .  S
C1823      C1824   1.411       .  A
C1823      C1828   1.411       .  A
C1824      C1825   1.411       .  A
C1824     Br1835   1.928       .  S
C1825      C1826   1.409       .  A
C1825     Br1831   1.928       .  S
C1826      C1827   1.409       .  A
C1827      C1828   1.409       .  A
C1827     Br1836   1.929       .  S
C1828     Br1832   1.929       .  S
C1837      C1838   1.412       .  A
C1837      C1842   1.410       .  A
C1838      C1839   1.407       .  A
C1838     Br1850   1.931       .  S
C1839      C1840   1.409       .  A
C1839     Br1854   1.931       .  S
C1840      C1843   1.491       .  S
C1840      C1841   1.413       .  A
C1841      C1842   1.412       .  A
C1841     Br1849   1.929       .  S
C1842     Br1853   1.928       .  S
C1843      C1844   1.410       .  A
C1843      C1848   1.406       .  A
C1844      C1845   1.412       .  A
C1844     Br1855   1.932       .  S
C1845      C1846   1.418       .  A
C1845     Br1851   1.933       .  S
C1846      C1847   1.422       .  A
C1847      C1848   1.409       .  A
C1847     Br1856   1.936       .  S
C1848     Br1852   1.932       .  S
C1857      C1858   1.417       .  A
C1857      C1862   1.412       .  A
C1858      C1859   1.407       .  A
C1858     Br1870   1.933       .  S
C1859      C1860   1.406       .  A
C1859     Br1874   1.931       .  S
C1860      C1863   1.491       .  S
C1860      C1861   1.412       .  A
C1861      C1862   1.414       .  A
C1861     Br1869   1.928       .  S
C1862     Br1873   1.928       .  S
C1863      C1864   1.408       .  A
C1863      C1868   1.411       .  A
C1864      C1865   1.409       .  A
C1864     Br1875   1.929       .  S
C1865      C1866   1.413       .  A
C1865     Br1871   1.931       .  S
C1866      C1867   1.409       .  A
C1867      C1868   1.411       .  A
C1867     Br1876   1.928       .  S
C1868     Br1872   1.928       .  S
C1877      C1878   1.411       .  A
C1877      C1882   1.413   1_565  A
C1878      C1879   1.414   1_565  A
C1878     Br1890   1.928       .  S
C1879      C1880   1.413       .  A
C1879     Br1894   1.928       .  S
C1880      C1883   1.491       .  S
C1880      C1881   1.407       .  A
C1881      C1882   1.405       .  A
C1881     Br1889   1.933       .  S
C1882     Br1893   1.924       .  S
C1883      C1884   1.406       .  A
C1883      C1888   1.410       .  A
C1884      C1885   1.407       .  A
C1884     Br1895   1.933       .  S
C1885      C1886   1.422       .  A
C1885     Br1891   1.937       .  S
C1886      C1887   1.421       .  A
C1887      C1888   1.414       .  A
C1887     Br1896   1.932       .  S
C1888     Br1892   1.931       .  S
C1897      C1898   1.420       .  A
C1897      C1902   1.426       .  A
C1898      C1899   1.416       .  A
C1898     Br1910   1.931       .  S
C1899      C1900   1.411       .  A
C1899     Br1914   1.930       .  S
C1900      C1903   1.499       .  S
C1900      C1901   1.406       .  A
C1901      C1902   1.413       .  A
C1901     Br1909   1.932       .  S
C1902     Br1913   1.936       .  S
C1903      C1904   1.411       .  A
C1903      C1908   1.412       .  A
C1904      C1905   1.413       .  A
C1904     Br1915   1.928       .  S
C1905      C1906   1.412       .  A
C1905     Br1911   1.928       .  S
C1906      C1907   1.410       .  A
C1907      C1908   1.413       .  A
C1907     Br1916   1.929       .  S
C1908     Br1912   1.928       .  S
C1917      C1918   1.410       .  A
C1917      C1922   1.414       .  A
C1918      C1919   1.410       .  A
C1918     Br1930   1.929       .  S
C1919      C1920   1.411       .  A
C1919     Br1934   1.929       .  S
C1920      C1923   1.486       .  S
C1920      C1921   1.406       .  A
C1921      C1922   1.406       .  A
C1921     Br1929   1.930       .  S
C1922     Br1933   1.932       .  S
C1923      C1924   1.405       .  A
C1923      C1928   1.411       .  A
C1924      C1925   1.405   1_455  A
C1924     Br1935   1.931   1_455  S
C1925      C1926   1.416   1_655  A
C1925     Br1931   1.934       .  S
C1926      C1927   1.413       .  A
C1927      C1928   1.412       .  A
C1927     Br1936   1.929       .  S
C1928     Br1932   1.929       .  S
C1937      C1938   1.409       .  A
C1937      C1942   1.408       .  A
C1938      C1939   1.409       .  A
C1938     Br1950   1.928       .  S
C1939      C1940   1.411       .  A
C1939     Br1954   1.929       .  S
C1940      C1943   1.487       .  S
C1940      C1941   1.410       .  A
C1941      C1942   1.407       .  A
C1941     Br1949   1.930       .  S
C1942     Br1953   1.929   1_455  S
C1943      C1944   1.412       .  A
C1943      C1948   1.405       .  A
C1944      C1945   1.413       .  A
C1944     Br1955   1.929       .  S
C1945      C1946   1.412       .  A
C1945     Br1951   1.929       .  S
C1946      C1947   1.416       .  A
C1947      C1948   1.404       .  A
C1947     Br1956   1.931       .  S
C1948     Br1952   1.932       .  S
C1957      C1958   1.414       .  A
C1957      C1962   1.409       .  A
C1958      C1959   1.403       .  A
C1958     Br1970   1.932       .  S
C1959      C1960   1.405       .  A
C1959     Br1974   1.931       .  S
C1960      C1963   1.482       .  S
C1960      C1961   1.412       .  A
C1961      C1962   1.410       .  A
C1961     Br1969   1.929       .  S
C1962     Br1973   1.928       .  S
C1963      C1964   1.408       .  A
C1963      C1968   1.411       .  A
C1964      C1965   1.406       .  A
C1964     Br1975   1.929       .  S
C1965      C1966   1.410       .  A
C1965     Br1971   1.930       .  S
C1966      C1967   1.407       .  A
C1967      C1968   1.407       .  A
C1967     Br1976   1.929       .  S
C1968     Br1972   1.930       .  S
C1977      C1978   1.414       .  A
C1977      C1982   1.418       .  A
C1978      C1979   1.414       .  A
C1978     Br1990   1.929       .  S
C1979      C1980   1.413       .  A
C1979     Br1994   1.930       .  S
C1980      C1983   1.494       .  S
C1980      C1981   1.407       .  A
C1981      C1982   1.408       .  A
C1981     Br1989   1.931       .  S
C1982     Br1993   1.932       .  S
C1983      C1984   1.409       .  A
C1983      C1988   1.413       .  A
C1984      C1985   1.408       .  A
C1984     Br1995   1.930       .  S
C1985      C1986   1.413       .  A
C1985     Br1991   1.931       .  S
C1986      C1987   1.412       .  A
C1987      C1988   1.413       .  A
C1987     Br1996   1.929       .  S
C1988     Br1992   1.929       .  S
C1997      C1998   1.416       .  A
C1997      C2002   1.420       .  A
C1998      C1999   1.414       .  A
C1998     Br2010   1.930       .  S
C1999      C2000   1.412       .  A
C1999     Br2014   1.931       .  S
C2000      C2003   1.497       .  S
C2000      C2001   1.408       .  A
C2001      C2002   1.411       .  A
C2001     Br2009   1.930       .  S
C2002     Br2013   1.934       .  S
C2003      C2004   1.407       .  A
C2003      C2008   1.413       .  A
C2004      C2005   1.408       .  A
C2004     Br2015   1.931       .  S
C2005      C2006   1.418   1_455  A
C2005     Br2011   1.933       .  S
C2006      C2007   1.411       .  A
C2007      C2008   1.416   1_655  A
C2007     Br2016   1.926       .  S
C2008     Br2012   1.928       .  S
C2017      C2018   1.421       .  A
C2017      C2022   1.420       .  A
C2018      C2019   1.415       .  A
C2018     Br2030   1.933       .  S
C2019      C2020   1.409       .  A
C2019     Br2034   1.930       .  S
C2020      C2023   1.505       .  S
C2020      C2021   1.410       .  A
C2021      C2022   1.417       .  A
C2021     Br2029   1.930       .  S
C2022     Br2033   1.928       .  S
C2023      C2024   1.410       .  A
C2023      C2028   1.410       .  A
C2024      C2025   1.416       .  A
C2024     Br2035   1.930       .  S
C2025      C2026   1.418       .  A
C2025     Br2031   1.928       .  S
C2026      C2027   1.420       .  A
C2027      C2028   1.416       .  A
C2027     Br2036   1.931       .  S
C2028     Br2032   1.930       .  S
C2037      C2038   1.411       .  A
C2037      C2042   1.410       .  A
C2038      C2039   1.416       .  A
C2038     Br2050   1.928       .  S
C2039      C2040   1.413       .  A
C2039     Br2054   1.927       .  S
C2040      C2043   1.502       .  S
C2040      C2041   1.411       .  A
C2041      C2042   1.413       .  A
C2041     Br2049   1.928       .  S
C2042     Br2053   1.928       .  S
C2043      C2044   1.411       .  A
C2043      C2048   1.412       .  A
C2044      C2045   1.415       .  A
C2044     Br2055   1.928       .  S
C2045      C2046   1.413       .  A
C2045     Br2051   1.928       .  S
C2046      C2047   1.412       .  A
C2047      C2048   1.415       .  A
C2047     Br2056   1.928       .  S
C2048     Br2052   1.929       .  S
C2057      C2058   1.416       .  A
C2057      C2062   1.416       .  A
C2058      C2059   1.418       .  A
C2058     Br2070   1.929       .  S
C2059      C2060   1.412       .  A
C2059     Br2074   1.929       .  S
C2060      C2063   1.512       .  S
C2060      C2061   1.413       .  A
C2061      C2062   1.419       .  A
C2061     Br2069   1.928       .  S
C2062     Br2073   1.929       .  S
C2063      C2064   1.412       .  A
C2063      C2068   1.413       .  A
C2064      C2065   1.418       .  A
C2064     Br2075   1.928       .  S
C2065      C2066   1.416       .  A
C2065     Br2071   1.929       .  S
C2066      C2067   1.418       .  A
C2067      C2068   1.419       .  A
C2067     Br2076   1.930       .  S
C2068     Br2072   1.929       .  S
C2077      C2078   1.409       .  A
C2077      C2082   1.410       .  A
C2078      C2079   1.410       .  A
C2078     Br2090   1.929       .  S
C2079      C2080   1.411       .  A
C2079     Br2094   1.929       .  S
C2080      C2083   1.492       .  S
C2080      C2081   1.411       .  A
C2081      C2082   1.411       .  A
C2081     Br2089   1.929       .  S
C2082     Br2093   1.929       .  S
C2083      C2084   1.411       .  A
C2083      C2088   1.410       .  A
C2084      C2085   1.411       .  A
C2084     Br2095   1.928       .  S
C2085      C2086   1.410       .  A
C2085     Br2091   1.929       .  S
C2086      C2087   1.409       .  A
C2087      C2088   1.409       .  A
C2087     Br2096   1.929       .  S
C2088     Br2092   1.929       .  S
C2097      C2098   1.412       .  A
C2097      C2102   1.413       .  A
C2098      C2099   1.415       .  A
C2098     Br2110   1.928       .  S
C2099      C2100   1.412       .  A
C2099     Br2114   1.928       .  S
C2100      C2103   1.504       .  S
C2100      C2101   1.412       .  A
C2101      C2102   1.416       .  A
C2101     Br2109   1.928       .  S
C2102     Br2113   1.929       .  S
C2103      C2104   1.412       .  A
C2103      C2108   1.411       .  A
C2104      C2105   1.416       .  A
C2104     Br2115   1.929       .  S
C2105      C2106   1.415       .  A
C2105     Br2111   1.929       .  S
C2106      C2107   1.415       .  A
C2107      C2108   1.415       .  A
C2107     Br2116   1.930       .  S
C2108     Br2112   1.928       .  S
C2117      C2118   1.411       .  A
C2117      C2122   1.412       .  A
C2118      C2119   1.411       .  A
C2118     Br2130   1.930       .  S
C2119      C2120   1.410       .  A
C2119     Br2134   1.929       .  S
C2120      C2123   1.494       .  S
C2120      C2121   1.411       .  A
C2121      C2122   1.412       .  A
C2121     Br2129   1.928       .  S
C2122     Br2133   1.930       .  S
C2123      C2124   1.411       .  A
C2123      C2128   1.411       .  A
C2124      C2125   1.412       .  A
C2124     Br2135   1.929       .  S
C2125      C2126   1.410       .  A
C2125     Br2131   1.928       .  S
C2126      C2127   1.411       .  A
C2127      C2128   1.412       .  A
C2127     Br2136   1.929       .  S
C2128     Br2132   1.928       .  S
C2137      C2138   1.417       .  A
C2137      C2142   1.417       .  A
C2138      C2139   1.415       .  A
C2138     Br2150   1.930       .  S
C2139      C2140   1.410       .  A
C2139     Br2154   1.930       .  S
C2140      C2143   1.503       .  S
C2140      C2141   1.411       .  A
C2141      C2142   1.416       .  A
C2141     Br2149   1.929       .  S
C2142     Br2153   1.931       .  S
C2143      C2144   1.413       .  A
C2143      C2148   1.412       .  A
C2144      C2145   1.416       .  A
C2144     Br2155   1.928       .  S
C2145      C2146   1.412       .  A
C2145     Br2151   1.928       .  S
C2146      C2147   1.410       .  A
C2147      C2148   1.413       .  A
C2147     Br2156   1.928       .  S
C2148     Br2152   1.928       .  S
C2157      C2158   1.409       .  A
C2157      C2162   1.410   1_554  A
C2158      C2159   1.411       .  A
C2158     Br2170   1.929       .  S
C2159      C2160   1.412       .  A
C2159     Br2174   1.928       .  S
C2160      C2163   1.495       .  S
C2160      C2161   1.411   1_554  A
C2161      C2162   1.412       .  A
C2161     Br2169   1.928       .  S
C2162     Br2173   1.928       .  S
C2163      C2164   1.411       .  A
C2163      C2168   1.411   1_554  A
C2164      C2165   1.412       .  A
C2164     Br2175   1.929       .  S
C2165      C2166   1.411       .  A
C2165     Br2171   1.927       .  S
C2166      C2167   1.410   1_554  A
C2167      C2168   1.412       .  A
C2167     Br2176   1.927       .  S
C2168     Br2172   1.929       .  S
C2177      C2178   1.410   1_545  A
C2177      C2182   1.411       .  A
C2178      C2179   1.412       .  A
C2178     Br2190   1.928       .  S
C2179      C2180   1.411   1_565  A
C2179     Br2194   1.929       .  S
C2180      C2183   1.499       .  S
C2180      C2181   1.412       .  A
C2181      C2182   1.414       .  A
C2181     Br2189   1.928       .  S
C2182     Br2193   1.928       .  S
C2183      C2184   1.412   1_545  A
C2183      C2188   1.411       .  A
C2184      C2185   1.413       .  A
C2184     Br2195   1.928       .  S
C2185      C2186   1.411       .  A
C2185     Br2191   1.928       .  S
C2186      C2187   1.411   1_565  A
C2187      C2188   1.413       .  A
C2187     Br2196   1.928       .  S
C2188     Br2192   1.928       .  S
C2197      C2198   1.412       .  A
C2197      C2202   1.411   1_655  A
C2198      C2199   1.416       .  A
C2198     Br2210   1.928       .  S
C2199      C2200   1.413       .  A
C2199     Br2214   1.928       .  S
C2200      C2203   1.505       .  S
C2200      C2201   1.413   1_655  A
C2201      C2202   1.415       .  A
C2201     Br2209   1.929       .  S
C2202     Br2213   1.927       .  S
C2203      C2204   1.413       .  A
C2203      C2208   1.413   1_655  A
C2204      C2205   1.416       .  A
C2204     Br2215   1.928       .  S
C2205      C2206   1.411       .  A
C2205     Br2211   1.928       .  S
C2206      C2207   1.411   1_655  A
C2207      C2208   1.415       .  A
C2207     Br2216   1.927       .  S
C2208     Br2212   1.928       .  S
C2217      C2218   1.413       .  A
C2217      C2222   1.412       .  A
C2218      C2219   1.418       .  A
C2218     Br2230   1.928       .  S
C2219      C2220   1.414       .  A
C2219     Br2234   1.928       .  S
C2220      C2223   1.512       .  S
C2220      C2221   1.414       .  A
C2221      C2222   1.419       .  A
C2221     Br2229   1.927       .  S
C2222     Br2233   1.927       .  S
C2223      C2224   1.414       .  A
C2223      C2228   1.414       .  A
C2224      C2225   1.418       .  A
C2224     Br2235   1.927       .  S
C2225      C2226   1.412       .  A
C2225     Br2231   1.928       .  S
C2226      C2227   1.412       .  A
C2227      C2228   1.418       .  A
C2227     Br2236   1.928       .  S
C2228     Br2232   1.927       .  S
C2237      C2238   1.412       .  A
C2237      C2242   1.412       .  A
C2238      C2239   1.416       .  A
C2238     Br2250   1.929       .  S
C2239      C2240   1.413       .  A
C2239     Br2254   1.928       .  S
C2240      C2243   1.506       .  S
C2240      C2241   1.413       .  A
C2241      C2242   1.416       .  A
C2241     Br2249   1.927       .  S
C2242     Br2253   1.928       .  S
C2243      C2244   1.412       .  A
C2243      C2248   1.413       .  A
C2244      C2245   1.416       .  A
C2244     Br2255   1.928       .  S
C2245      C2246   1.412       .  A
C2245     Br2251   1.928       .  S
C2246      C2247   1.413       .  A
C2247      C2248   1.417       .  A
C2247     Br2256   1.928       .  S
C2248     Br2252   1.928       .  S
C2257      C2258   1.411   1_455  A
C2257      C2262   1.411       .  A
C2258      C2259   1.415       .  A
C2258     Br2270   1.929       .  S
C2259      C2260   1.413   1_655  A
C2259     Br2274   1.928       .  S
C2260      C2263   1.505       .  S
C2260      C2261   1.413       .  A
C2261      C2262   1.415       .  A
C2261     Br2269   1.927       .  S
C2262     Br2273   1.928       .  S
C2263      C2264   1.412       .  A
C2263      C2268   1.412       .  A
C2264      C2265   1.416       .  A
C2264     Br2275   1.929       .  S
C2265      C2266   1.415       .  A
C2265     Br2271   1.929       .  S
C2266      C2267   1.415       .  A
C2267      C2268   1.416       .  A
C2267     Br2276   1.929   1_455  S
C2268     Br2272   1.929   1_455  S
C2277      C2278   1.410       .  A
C2277      C2282   1.413       .  A
C2278      C2279   1.413       .  A
C2278     Br2290   1.927       .  S
C2279      C2280   1.413       .  A
C2279     Br2294   1.928       .  S
C2280      C2283   1.496       .  S
C2280      C2281   1.409       .  A
C2281      C2282   1.411       .  A
C2281     Br2289   1.930       .  S
C2282     Br2293   1.928       .  S
C2283      C2284   1.411       .  A
C2283      C2288   1.412       .  A
C2284      C2285   1.411   1_565  A
C2284     Br2295   1.928       .  S
C2285      C2286   1.412       .  A
C2285     Br2291   1.930       .  S
C2286      C2287   1.410       .  A
C2287      C2288   1.412   1_545  A
C2287     Br2296   1.929       .  S
C2288     Br2292   1.929       .  S
C2297      C2298   1.409       .  A
C2297      C2302   1.411       .  A
C2298      C2299   1.412       .  A
C2298     Br2310   1.927       .  S
C2299      C2300   1.412       .  A
C2299     Br2314   1.928       .  S
C2300      C2303   1.493       .  S
C2300      C2301   1.410       .  A
C2301      C2302   1.410       .  A
C2301     Br2309   1.929       .  S
C2302     Br2313   1.930   1_455  S
C2303      C2304   1.404       .  A
C2303      C2308   1.413       .  A
C2304      C2305   1.407       .  A
C2304     Br2315   1.933       .  S
C2305      C2306   1.419       .  A
C2305     Br2311   1.926       .  S
C2306      C2307   1.411       .  A
C2307      C2308   1.416       .  A
C2307     Br2316   1.927       .  S
C2308     Br2312   1.928       .  S
C2317      C2318   1.415       .  A
C2317      C2322   1.412       .  A
C2318      C2319   1.407       .  A
C2318     Br2330   1.934       .  S
C2319      C2320   1.409       .  A
C2319     Br2334   1.931       .  S
C2320      C2323   1.494       .  S
C2320      C2321   1.413       .  A
C2321      C2322   1.414       .  A
C2321     Br2329   1.928       .  S
C2322     Br2333   1.928       .  S
C2323      C2324   1.414       .  A
C2323      C2328   1.409       .  A
C2324      C2325   1.414       .  A
C2324     Br2335   1.929       .  S
C2325      C2326   1.409       .  A
C2325     Br2331   1.927       .  S
C2326      C2327   1.415       .  A
C2327      C2328   1.408       .  A
C2327     Br2336   1.931       .  S
C2328     Br2332   1.931       .  S
C2337      C2338   1.420       .  A
C2337      C2342   1.413       .  A
C2338      C2339   1.407       .  A
C2338     Br2350   1.935       .  S
C2339      C2340   1.407       .  A
C2339     Br2354   1.932       .  S
C2340      C2343   1.497       .  S
C2340      C2341   1.416       .  A
C2341      C2342   1.417       .  A
C2341     Br2349   1.930       .  S
C2342     Br2353   1.927       .  S
C2343      C2344   1.412       .  A
C2343      C2348   1.414       .  A
C2344      C2345   1.410       .  A
C2344     Br2355   1.929       .  S
C2345      C2346   1.409       .  A
C2345     Br2351   1.929       .  S
C2346      C2347   1.409       .  A
C2347      C2348   1.413       .  A
C2347     Br2356   1.928       .  S
C2348     Br2352   1.929       .  S
C2357      C2358   1.417       .  A
C2357      C2362   1.428       .  A
C2358      C2359   1.414       .  A
C2358     Br2370   1.931       .  S
C2359      C2360   1.410       .  A
C2359     Br2374   1.930       .  S
C2360      C2363   1.493       .  S
C2360      C2361   1.404       .  A
C2361      C2362   1.411       .  A
C2361     Br2369   1.934       .  S
C2362     Br2373   1.937       .  S
C2363      C2364   1.411       .  A
C2363      C2368   1.410       .  A
C2364      C2365   1.410       .  A
C2364     Br2375   1.929       .  S
C2365      C2366   1.409       .  A
C2365     Br2371   1.928       .  S
C2366      C2367   1.410       .  A
C2367      C2368   1.411       .  A
C2367     Br2376   1.928   1_565  S
C2368     Br2372   1.928       .  S
C2377      C2378   1.409       .  A
C2377      C2382   1.410       .  A
C2378      C2379   1.412       .  A
C2378     Br2390   1.927       .  S
C2379      C2380   1.413   1_545  A
C2379     Br2394   1.929       .  S
C2380      C2383   1.493       .  S
C2380      C2381   1.411       .  A
C2381      C2382   1.407   1_565  A
C2381     Br2389   1.931       .  S
C2382     Br2393   1.931       .  S
C2383      C2384   1.410       .  A
C2383      C2388   1.416       .  A
C2384      C2385   1.408       .  A
C2384     Br2395   1.930       .  S
C2385      C2386   1.413       .  A
C2385     Br2391   1.932       .  S
C2386      C2387   1.407       .  A
C2387      C2388   1.411       .  A
C2387     Br2396   1.928       .  S
C2388     Br2392   1.930       .  S
C2397      C2398   1.413       .  A
C2397      C2402   1.417       .  A
C2398      C2399   1.411       .  A
C2398     Br2410   1.930       .  S
C2399      C2400   1.411       .  A
C2399     Br2414   1.931       .  S
C2400      C2403   1.488       .  S
C2400      C2401   1.406       .  A
C2401      C2402   1.408       .  A
C2401     Br2409   1.930       .  S
C2402     Br2413   1.933       .  S
C2403      C2404   1.412       .  A
C2403      C2408   1.407       .  A
C2404      C2405   1.411       .  A
C2404     Br2415   1.929       .  S
C2405      C2406   1.409       .  A
C2405     Br2411   1.928       .  S
C2406      C2407   1.411       .  A
C2407      C2408   1.406       .  A
C2407     Br2416   1.931       .  S
C2408     Br2412   1.929       .  S
C2417      C2418   1.414       .  A
C2417      C2422   1.410       .  A
C2418      C2419   1.406       .  A
C2418     Br2430   1.926       .  S
C2419      C2420   1.406       .  A
C2419     Br2434   1.931       .  S
C2420      C2423   1.491       .  S
C2420      C2421   1.413       .  A
C2421      C2422   1.414       .  A
C2421     Br2429   1.928       .  S
C2422     Br2433   1.927       .  S
C2423      C2424   1.410       .  A
C2423      C2428   1.410       .  A
C2424      C2425   1.409       .  A
C2424     Br2435   1.929       .  S
C2425      C2426   1.409       .  A
C2425     Br2431   1.928       .  S
C2426      C2427   1.409       .  A
C2427      C2428   1.410       .  A
C2427     Br2436   1.928       .  S
C2428     Br2432   1.928       .  S
C2437      C2438   1.417       .  A
C2437      C2442   1.416       .  A
C2438      C2439   1.413       .  A
C2438     Br2450   1.932       .  S
C2439      C2440   1.411       .  A
C2439     Br2454   1.931       .  S
C2440      C2443   1.502       .  S
C2440      C2441   1.412       .  A
C2441      C2442   1.415       .  A
C2441     Br2449   1.930       .  S
C2442     Br2453   1.930       .  S
C2443      C2444   1.408       .  A
C2443      C2448   1.414       .  A
C2444      C2445   1.410       .  A
C2444     Br2455   1.932       .  S
C2445      C2446   1.420       .  A
C2445     Br2451   1.935       .  S
C2446      C2447   1.414       .  A
C2447      C2448   1.417       .  A
C2447     Br2456   1.928       .  S
C2448     Br2452   1.928       .  S
C2457      C2458   1.411       .  A
C2457      C2462   1.410   1_655  A
C2458      C2459   1.416       .  A
C2458     Br2470   1.928       .  S
C2459      C2460   1.415       .  A
C2459     Br2474   1.928       .  S
C2460      C2463   1.505       .  S
C2460      C2461   1.412   1_655  A
C2461      C2462   1.413       .  A
C2461     Br2469   1.929       .  S
C2462     Br2473   1.928       .  S
C2463      C2464   1.412       .  A
C2463      C2468   1.414   1_655  A
C2464      C2465   1.415       .  A
C2464     Br2475   1.929       .  S
C2465      C2466   1.413       .  A
C2465     Br2471   1.929       .  S
C2466      C2467   1.412   1_655  A
C2467      C2468   1.415       .  A
C2467     Br2476   1.929       .  S
C2468     Br2472   1.929       .  S
C2477      C2478   1.417       .  A
C2477      C2482   1.410       .  A
C2478      C2479   1.409       .  A
C2478     Br2490   1.929       .  S
C2479      C2480   1.406       .  A
C2479     Br2494   1.931       .  S
C2480      C2483   1.493       .  S
C2480      C2481   1.412       .  A
C2481      C2482   1.414       .  A
C2481     Br2489   1.928       .  S
C2482     Br2493   1.927       .  S
C2483      C2484   1.413       .  A
C2483      C2488   1.407       .  A
C2484      C2485   1.413       .  A
C2484     Br2495   1.928       .  S
C2485      C2486   1.410       .  A
C2485     Br2491   1.928       .  S
C2486      C2487   1.416       .  A
C2487      C2488   1.408       .  A
C2487     Br2496   1.933       .  S
C2488     Br2492   1.930       .  S
C2497      C2498   1.415   1_655  A
C2497      C2502   1.414       .  A
C2498      C2499   1.415       .  A
C2498     Br2510   1.929       .  S
C2499      C2500   1.411   1_455  A
C2499     Br2514   1.929       .  S
C2500      C2503   1.502       .  S
C2500      C2501   1.411       .  A
C2501      C2502   1.414       .  A
C2501     Br2509   1.929       .  S
C2502     Br2513   1.929       .  S
C2503      C2504   1.410       .  A
C2503      C2508   1.411   1_655  A
C2504      C2505   1.415       .  A
C2504     Br2515   1.929       .  S
C2505      C2506   1.417       .  A
C2505     Br2511   1.931       .  S
C2506      C2507   1.415   1_655  A
C2507      C2508   1.414       .  A
C2507     Br2516   1.930       .  S
C2508     Br2512   1.929       .  S
C2517      C2518   1.421       .  A
C2517      C2522   1.414       .  A
C2518      C2519   1.403       .  A
C2518     Br2530   1.928       .  S
C2519      C2520   1.403       .  A
C2519     Br2534   1.936       .  S
C2520      C2523   1.490       .  S
C2520      C2521   1.413       .  A
C2521      C2522   1.416       .  A
C2521     Br2529   1.928       .  S
C2522     Br2533   1.928       .  S
C2523      C2524   1.411       .  A
C2523      C2528   1.413       .  A
C2524      C2525   1.410   1_554  A
C2524     Br2535   1.928       .  S
C2525      C2526   1.408       .  A
C2525     Br2531   1.928       .  S
C2526      C2527   1.407       .  A
C2527      C2528   1.406   1_556  A
C2527     Br2536   1.929   1_455  S
C2528     Br2532   1.932       .  S
C2537      C2538   1.417       .  A
C2537      C2542   1.415   1_565  A
C2538      C2539   1.421       .  A
C2538     Br2550   1.928       .  S
C2539      C2540   1.414       .  A
C2539     Br2554   1.928       .  S
C2540      C2543   1.515       .  S
C2540      C2541   1.413   1_565  A
C2541      C2542   1.418       .  A
C2541     Br2549   1.928       .  S
C2542     Br2553   1.928       .  S
C2543      C2544   1.413       .  A
C2543      C2548   1.415   1_565  A
C2544      C2545   1.418       .  A
C2544     Br2555   1.929       .  S
C2545      C2546   1.415       .  A
C2545     Br2551   1.928       .  S
C2546      C2547   1.415   1_565  A
C2547      C2548   1.421       .  A
C2547     Br2556   1.927       .  S
C2548     Br2552   1.927       .  S
C2557      C2558   1.411       .  A
C2557      C2562   1.410       .  A
C2558      C2559   1.413       .  A
C2558     Br2570   1.928       .  S
C2559      C2560   1.413       .  A
C2559     Br2574   1.929       .  S
C2560      C2563   1.502       .  S
C2560      C2561   1.412       .  A
C2561      C2562   1.413       .  A
C2561     Br2569   1.928       .  S
C2562     Br2573   1.927   1_565  S
C2563      C2564   1.414       .  A
C2563      C2568   1.407       .  A
C2564      C2565   1.418       .  A
C2564     Br2575   1.929       .  S
C2565      C2566   1.415       .  A
C2565     Br2571   1.929       .  S
C2566      C2567   1.424       .  A
C2567      C2568   1.411       .  A
C2567     Br2576   1.936       .  S
C2568     Br2572   1.933       .  S
C2577      C2578   1.413       .  A
C2577      C2582   1.418       .  A
C2578      C2579   1.415       .  A
C2578     Br2590   1.928       .  S
C2579      C2580   1.413       .  A
C2579     Br2594   1.929       .  S
C2580      C2583   1.495       .  S
C2580      C2581   1.407       .  A
C2581      C2582   1.408       .  A
C2581     Br2589   1.932   1_545  S
C2582     Br2593   1.931   1_545  S
C2583      C2584   1.412       .  A
C2583      C2588   1.409       .  A
C2584      C2585   1.414       .  A
C2584     Br2595   1.930       .  S
C2585      C2586   1.415       .  A
C2585     Br2591   1.931       .  S
C2586      C2587   1.417       .  A
C2587      C2588   1.408       .  A
C2587     Br2596   1.935       .  S
C2588     Br2592   1.931       .  S
C2597      C2598   1.411   1_554  A
C2597      C2602   1.411       .  A
C2598      C2599   1.415       .  A
C2598     Br2610   1.928       .  S
C2599      C2600   1.412   1_556  A
C2599     Br2614   1.928       .  S
C2600      C2603   1.505       .  S
C2600      C2601   1.413       .  A
C2601      C2602   1.416       .  A
C2601     Br2609   1.928       .  S
C2602     Br2613   1.928       .  S
C2603      C2604   1.413       .  A
C2603      C2608   1.412   1_554  A
C2604      C2605   1.417       .  A
C2604     Br2615   1.928       .  S
C2605      C2606   1.413       .  A
C2605     Br2611   1.927       .  S
C2606      C2607   1.412   1_554  A
C2607      C2608   1.415       .  A
C2607     Br2616   1.927       .  S
C2608     Br2612   1.928       .  S
C2617      C2618   1.412       .  A
C2617      C2622   1.409       .  A
C2618      C2619   1.409       .  A
C2618     Br2630   1.929       .  S
C2619      C2620   1.410       .  A
C2619     Br2634   1.930       .  S
C2620      C2623   1.493       .  S
C2620      C2621   1.414       .  A
C2621      C2622   1.411       .  A
C2621     Br2629   1.930       .  S
C2622     Br2633   1.928       .  S
C2623      C2624   1.413       .  A
C2623      C2628   1.409       .  A
C2624      C2625   1.414   1_545  A
C2624     Br2635   1.929       .  S
C2625      C2626   1.412       .  A
C2625     Br2631   1.927       .  S
C2626      C2627   1.414   1_565  A
C2627      C2628   1.406       .  A
C2627     Br2636   1.933   1_554  S
C2628     Br2632   1.931   1_554  S
C2637      C2638   1.411   1_556  A
C2637      C2642   1.412       .  A
C2638      C2639   1.416       .  A
C2638     Br2650   1.928       .  S
C2639      C2640   1.413   1_554  A
C2639     Br2654   1.927       .  S
C2640      C2643   1.505       .  S
C2640      C2641   1.413       .  A
C2641      C2642   1.415       .  A
C2641     Br2649   1.928       .  S
C2642     Br2653   1.929       .  S
C2643      C2644   1.412       .  A
C2643      C2648   1.413       .  A
C2644      C2645   1.414       .  A
C2644     Br2655   1.929   1_556  S
C2645      C2646   1.414       .  A
C2645     Br2651   1.930   1_556  S
C2646      C2647   1.414       .  A
C2647      C2648   1.418       .  A
C2647     Br2656   1.928       .  S
C2648     Br2652   1.928       .  S
C2657      C2658   1.411       .  A
C2657      C2662   1.415   1_554  A
C2658      C2659   1.412       .  A
C2658     Br2670   1.928       .  S
C2659      C2660   1.412       .  A
C2659     Br2674   1.928       .  S
C2660      C2663   1.489       .  S
C2660      C2661   1.406       .  A
C2661      C2662   1.406   1_554  A
C2661     Br2669   1.930   1_554  S
C2662     Br2673   1.932       .  S
C2663      C2664   1.412       .  A
C2663      C2668   1.405       .  A
C2664      C2665   1.413       .  A
C2664     Br2675   1.929       .  S
C2665      C2666   1.412       .  A
C2665     Br2671   1.928       .  S
C2666      C2667   1.417       .  A
C2667      C2668   1.407       .  A
C2667     Br2676   1.924       .  S
C2668     Br2672   1.931       .  S
C2677      C2678   1.416   1_545  A
C2677      C2682   1.416       .  A
C2678      C2679   1.418       .  A
C2678     Br2690   1.928       .  S
C2679      C2680   1.413   1_565  A
C2679     Br2694   1.929       .  S
C2680      C2683   1.510       .  S
C2680      C2681   1.412       .  A
C2681      C2682   1.416       .  A
C2681     Br2689   1.931       .  S
C2682     Br2693   1.925       .  S
C2683      C2684   1.414       .  A
C2683      C2688   1.414   1_545  A
C2684      C2685   1.417       .  A
C2684     Br2695   1.929       .  S
C2685      C2686   1.414       .  A
C2685     Br2691   1.929       .  S
C2686      C2687   1.413   1_545  A
C2687      C2688   1.417       .  A
C2687     Br2696   1.929       .  S
C2688     Br2692   1.929       .  S
C2697      C2698   1.409   1_655  A
C2697      C2702   1.410       .  A
C2698      C2699   1.408       .  A
C2698     Br2710   1.929   1_465  S
C2699      C2700   1.410       .  A
C2699     Br2714   1.929       .  S
C2700      C2703   1.496       .  S
C2700      C2701   1.413       .  A
C2701      C2702   1.414   1_455  A
C2701     Br2709   1.927       .  S
C2702     Br2713   1.927       .  S
C2703      C2704   1.412       .  A
C2703      C2708   1.405       .  A
C2704      C2705   1.416       .  A
C2704     Br2715   1.928       .  S
C2705      C2706   1.415       .  A
C2705     Br2711   1.929       .  S
C2706      C2707   1.425       .  A
C2707      C2708   1.410       .  A
C2707     Br2716   1.933       .  S
C2708     Br2712   1.934       .  S
C2717      C2718   1.409       .  A
C2717      C2722   1.410       .  A
C2718      C2719   1.411   1_655  A
C2718     Br2730   1.929       .  S
C2719      C2720   1.413       .  A
C2719     Br2734   1.930       .  S
C2720      C2723   1.495       .  S
C2720      C2721   1.411       .  A
C2721      C2722   1.411   1_455  A
C2721     Br2729   1.929       .  S
C2722     Br2733   1.928       .  S
C2723      C2724   1.413       .  A
C2723      C2728   1.407       .  A
C2724      C2725   1.413       .  A
C2724     Br2735   1.930       .  S
C2725      C2726   1.413       .  A
C2725     Br2731   1.930       .  S
C2726      C2727   1.419       .  A
C2727      C2728   1.410       .  A
C2727     Br2736   1.931       .  S
C2728     Br2732   1.932       .  S
C2737      C2738   1.414   1_565  A
C2737      C2742   1.413       .  A
C2738      C2739   1.419       .  A
C2738     Br2750   1.929       .  S
C2739      C2740   1.414   1_545  A
C2739     Br2754   1.927       .  S
C2740      C2743   1.514       .  S
C2740      C2741   1.414       .  A
C2741      C2742   1.419       .  A
C2741     Br2749   1.927       .  S
C2742     Br2753   1.928       .  S
C2743      C2744   1.414       .  A
C2743      C2748   1.415   1_565  A
C2744      C2745   1.419       .  A
C2744     Br2755   1.928       .  S
C2745      C2746   1.413       .  A
C2745     Br2751   1.928       .  S
C2746      C2747   1.413   1_565  A
C2747      C2748   1.420       .  A
C2747     Br2756   1.927       .  S
C2748     Br2752   1.928       .  S
C2757      C2758   1.410       .  A
C2757      C2762   1.413       .  A
C2758      C2759   1.417       .  A
C2758     Br2770   1.926       .  S
C2759      C2760   1.414       .  A
C2759     Br2774   1.927       .  S
C2760      C2763   1.500       .  S
C2760      C2761   1.409       .  A
C2761      C2762   1.410       .  A
C2761     Br2769   1.931       .  S
C2762     Br2773   1.928       .  S
C2763      C2764   1.406       .  A
C2763      C2768   1.413       .  A
C2764      C2765   1.409       .  A
C2764     Br2775   1.933       .  S
C2765      C2766   1.423       .  A
C2765     Br2771   1.937   1_565  S
C2766      C2767   1.415       .  A
C2767      C2768   1.418       .  A
C2767     Br2776   1.928       .  S
C2768     Br2772   1.928       .  S
C2777      C2778   1.410       .  A
C2777      C2782   1.411       .  A
C2778      C2779   1.414       .  A
C2778     Br2790   1.928       .  S
C2779      C2780   1.412       .  A
C2779     Br2794   1.928       .  S
C2780      C2783   1.502       .  S
C2780      C2781   1.412       .  A
C2781      C2782   1.415       .  A
C2781     Br2789   1.928       .  S
C2782     Br2793   1.928       .  S
C2783      C2784   1.410       .  A
C2783      C2788   1.410       .  A
C2784      C2785   1.416       .  A
C2784     Br2795   1.929       .  S
C2785      C2786   1.418       .  A
C2785     Br2791   1.931       .  S
C2786      C2787   1.419       .  A
C2787      C2788   1.414       .  A
C2787     Br2796   1.932       .  S
C2788     Br2792   1.931       .  S
C2797      C2798   1.412       .  A
C2797      C2802   1.411       .  A
C2798      C2799   1.415       .  A
C2798     Br2810   1.928       .  S
C2799      C2800   1.413       .  A
C2799     Br2814   1.928       .  S
C2800      C2803   1.503       .  S
C2800      C2801   1.412       .  A
C2801      C2802   1.414       .  A
C2801     Br2809   1.928       .  S
C2802     Br2813   1.928       .  S
C2803      C2804   1.412       .  A
C2803      C2808   1.411       .  A
C2804      C2805   1.416       .  A
C2804     Br2815   1.928       .  S
C2805      C2806   1.414       .  A
C2805     Br2811   1.929       .  S
C2806      C2807   1.415       .  A
C2807      C2808   1.415       .  A
C2807     Br2816   1.930       .  S
C2808     Br2812   1.929       .  S
C2817      C2818   1.412       .  A
C2817      C2822   1.418   1_565  A
C2818      C2819   1.414   1_565  A
C2818     Br2830   1.928       .  S
C2819      C2820   1.413       .  A
C2819     Br2834   1.929   1_545  S
C2820      C2823   1.492       .  S
C2820      C2821   1.406       .  A
C2821      C2822   1.407       .  A
C2821     Br2829   1.931       .  S
C2822     Br2833   1.934   1_556  S
C2823      C2824   1.408       .  A
C2823      C2828   1.413       .  A
C2824      C2825   1.408       .  A
C2824     Br2835   1.930       .  S
C2825      C2826   1.413       .  A
C2825     Br2831   1.931       .  S
C2826      C2827   1.409       .  A
C2827      C2828   1.413       .  A
C2827     Br2836   1.928       .  S
C2828     Br2832   1.928       .  S
C2837      C2838   1.423   1_556  A
C2837      C2842   1.416       .  A
C2838      C2839   1.407   1_554  A
C2838     Br2850   1.936       .  S
C2839      C2840   1.405       .  A
C2839     Br2854   1.933   1_556  S
C2840      C2843   1.491       .  S
C2840      C2841   1.411       .  A
C2841      C2842   1.415       .  A
C2841     Br2849   1.929       .  S
C2842     Br2853   1.928       .  S
C2843      C2844   1.409       .  A
C2843      C2848   1.410       .  A
C2844      C2845   1.410       .  A
C2844     Br2855   1.929       .  S
C2845      C2846   1.416       .  A
C2845     Br2851   1.931       .  S
C2846      C2847   1.414       .  A
C2847      C2848   1.410       .  A
C2847     Br2856   1.932       .  S
C2848     Br2852   1.931       .  S
C2857      C2858   1.412       .  A
C2857      C2862   1.415   1_554  A
C2858      C2859   1.412       .  A
C2858     Br2870   1.929       .  S
C2859      C2860   1.412   1_554  A
C2859     Br2874   1.929       .  S
C2860      C2863   1.488       .  S
C2860      C2861   1.407       .  A
C2861      C2862   1.404       .  A
C2861     Br2869   1.932       .  S
C2862     Br2873   1.931       .  S
C2863      C2864   1.413       .  A
C2863      C2868   1.408       .  A
C2864      C2865   1.412       .  A
C2864     Br2875   1.929       .  S
C2865      C2866   1.411       .  A
C2865     Br2871   1.928       .  S
C2866      C2867   1.415       .  A
C2867      C2868   1.405       .  A
C2867     Br2876   1.935       .  S
C2868     Br2872   1.932       .  S
C2877      C2878   1.409       .  A
C2877      C2882   1.408       .  A
C2878      C2879   1.406       .  A
C2878     Br2890   1.930       .  S
C2879      C2880   1.409       .  A
C2879     Br2894   1.929       .  S
C2880      C2883   1.487       .  S
C2880      C2881   1.410       .  A
C2881      C2882   1.409       .  A
C2881     Br2889   1.928       .  S
C2882     Br2893   1.927   1_545  S
C2883      C2884   1.410       .  A
C2883      C2888   1.404       .  A
C2884      C2885   1.412       .  A
C2884     Br2895   1.929       .  S
C2885      C2886   1.412       .  A
C2885     Br2891   1.929       .  S
C2886      C2887   1.421       .  A
C2887      C2888   1.407       .  A
C2887     Br2896   1.931       .  S
C2888     Br2892   1.933       .  S
C2897      C2898   1.420       .  A
C2897      C2902   1.413       .  A
C2898      C2899   1.406       .  A
C2898     Br2910   1.936       .  S
C2899      C2900   1.405       .  A
C2899     Br2914   1.933       .  S
C2900      C2903   1.495       .  S
C2900      C2901   1.414       .  A
C2901      C2902   1.417       .  A
C2901     Br2909   1.928       .  S
C2902     Br2913   1.927       .  S
C2903      C2904   1.412       .  A
C2903      C2908   1.411       .  A
C2904      C2905   1.413       .  A
C2904     Br2915   1.928       .  S
C2905      C2906   1.411       .  A
C2905     Br2911   1.929       .  S
C2906      C2907   1.409       .  A
C2907      C2908   1.410       .  A
C2907     Br2916   1.929   1_545  S
C2908     Br2912   1.929       .  S
C2917      C2918   1.420       .  A
C2917      C2922   1.424       .  A
C2918      C2919   1.412       .  A
C2918     Br2930   1.933       .  S
C2919      C2920   1.410       .  A
C2919     Br2934   1.933       .  S
C2920      C2923   1.493       .  S
C2920      C2921   1.406       .  A
C2921      C2922   1.410       .  A
C2921     Br2929   1.933       .  S
C2922     Br2933   1.936       .  S
C2923      C2924   1.413       .  A
C2923      C2928   1.410       .  A
C2924      C2925   1.412       .  A
C2924     Br2935   1.929       .  S
C2925      C2926   1.410       .  A
C2925     Br2931   1.928       .  S
C2926      C2927   1.412       .  A
C2927      C2928   1.408       .  A
C2927     Br2936   1.932       .  S
C2928     Br2932   1.930       .  S
C2937      C2938   1.412       .  A
C2937      C2942   1.407       .  A
C2938      C2939   1.403       .  A
C2938     Br2950   1.930       .  S
C2939      C2940   1.406       .  A
C2939     Br2954   1.932       .  S
C2940      C2943   1.484       .  S
C2940      C2941   1.413       .  A
C2941      C2942   1.411       .  A
C2941     Br2949   1.929       .  S
C2942     Br2953   1.927       .  S
C2943      C2944   1.412       .  A
C2943      C2948   1.407       .  A
C2944      C2945   1.410       .  A
C2944     Br2955   1.929       .  S
C2945      C2946   1.409       .  A
C2945     Br2951   1.928       .  S
C2946      C2947   1.413       .  A
C2947      C2948   1.403       .  A
C2947     Br2956   1.933       .  S
C2948     Br2952   1.931       .  S
C2957      C2958   1.427       .  A
C2957      C2962   1.416       .  A
C2958      C2959   1.408       .  A
C2958     Br2970   1.936       .  S
C2959      C2960   1.403       .  A
C2959     Br2974   1.935       .  S
C2960      C2963   1.492       .  S
C2960      C2961   1.411       .  A
C2961      C2962   1.415       .  A
C2961     Br2969   1.929       .  S
C2962     Br2973   1.930       .  S
C2963      C2964   1.411       .  A
C2963      C2968   1.410       .  A
C2964      C2965   1.410   1_556  A
C2964     Br2975   1.928       .  S
C2965      C2966   1.409       .  A
C2965     Br2971   1.928       .  S
C2966      C2967   1.410       .  A
C2967      C2968   1.409   1_554  A
C2967     Br2976   1.928       .  S
C2968     Br2972   1.929       .  S
C2977      C2978   1.418       .  A
C2977      C2982   1.413       .  A
C2978      C2979   1.408       .  A
C2978     Br2990   1.934       .  S
C2979      C2980   1.408       .  A
C2979     Br2994   1.932       .  S
C2980      C2983   1.497       .  S
C2980      C2981   1.413       .  A
C2981      C2982   1.416       .  A
C2981     Br2989   1.928       .  S
C2982     Br2993   1.927       .  S
C2983      C2984   1.409       .  A
C2983      C2988   1.413       .  A
C2984      C2985   1.410       .  A
C2984     Br2995   1.931       .  S
C2985      C2986   1.416       .  A
C2985     Br2991   1.930       .  S
C2986      C2987   1.412       .  A
C2987      C2988   1.414       .  A
C2987     Br2996   1.930       .  S
C2988     Br2992   1.929       .  S
C2997      C2998   1.418       .  A
C2997      C3002   1.410       .  A
C2998      C2999   1.405       .  A
C2998     Br3010   1.926       .  S
C2999      C3000   1.403       .  A
C2999     Br3014   1.933       .  S
C3000      C3003   1.484       .  S
C3000      C3001   1.411       .  A
C3001      C3002   1.411       .  A
C3001     Br3009   1.929       .  S
C3002     Br3013   1.928       .  S
C3003      C3004   1.410       .  A
C3003      C3008   1.408       .  A
C3004      C3005   1.408       .  A
C3004     Br3015   1.929       .  S
C3005      C3006   1.408       .  A
C3005     Br3011   1.928       .  S
C3006      C3007   1.409       .  A
C3007      C3008   1.406       .  A
C3007     Br3016   1.930       .  S
C3008     Br3012   1.929       .  S
C3017      C3018   1.415       .  A
C3017      C3022   1.422       .  A
C3018      C3019   1.414       .  A
C3018     Br3030   1.930       .  S
C3019      C3020   1.411       .  A
C3019     Br3034   1.930       .  S
C3020      C3023   1.492       .  S
C3020      C3021   1.405       .  A
C3021      C3022   1.410       .  A
C3021     Br3029   1.931       .  S
C3022     Br3033   1.936       .  S
C3023      C3024   1.412       .  A
C3023      C3028   1.407       .  A
C3024      C3025   1.413       .  A
C3024     Br3035   1.928       .  S
C3025      C3026   1.412       .  A
C3025     Br3031   1.928       .  S
C3026      C3027   1.415       .  A
C3027      C3028   1.408       .  A
C3027     Br3036   1.932       .  S
C3028     Br3032   1.929       .  S
C3037      C3038   1.411       .  A
C3037      C3042   1.411       .  A
C3038      C3039   1.411       .  A
C3038     Br3050   1.929       .  S
C3039      C3040   1.411       .  A
C3039     Br3054   1.929       .  S
C3040      C3043   1.495       .  S
C3040      C3041   1.411       .  A
C3041      C3042   1.412       .  A
C3041     Br3049   1.928       .  S
C3042     Br3053   1.929       .  S
C3043      C3044   1.410       .  A
C3043      C3048   1.410       .  A
C3044      C3045   1.412       .  A
C3044     Br3055   1.929       .  S
C3045      C3046   1.414       .  A
C3045     Br3051   1.930       .  S
C3046      C3047   1.414       .  A
C3047      C3048   1.412       .  A
C3047     Br3056   1.930       .  S
C3048     Br3052   1.929       .  S
C3057      C3058   1.410   1_556  A
C3057      C3062   1.410       .  A
C3058      C3059   1.411       .  A
C3058     Br3070   1.929       .  S
C3059      C3060   1.411   1_554  A
C3059     Br3074   1.928       .  S
C3060      C3063   1.494       .  S
C3060      C3061   1.411       .  A
C3061      C3062   1.411       .  A
C3061     Br3069   1.929       .  S
C3062     Br3073   1.929       .  S
C3063      C3064   1.411       .  A
C3063      C3068   1.412   1_556  A
C3064      C3065   1.411       .  A
C3064     Br3075   1.928       .  S
C3065      C3066   1.409       .  A
C3065     Br3071   1.929       .  S
C3066      C3067   1.410   1_556  A
C3067      C3068   1.412       .  A
C3067     Br3076   1.928       .  S
C3068     Br3072   1.929       .  S
C3077      C3078   1.410       .  A
C3077      C3082   1.408       .  A
C3078      C3079   1.408       .  A
C3078     Br3090   1.929   1_556  S
C3079      C3080   1.409       .  A
C3079     Br3094   1.929       .  S
C3080      C3083   1.488       .  S
C3080      C3081   1.411       .  A
C3081      C3082   1.409       .  A
C3081     Br3089   1.929       .  S
C3082     Br3093   1.929       .  S
C3083      C3084   1.411       .  A
C3083      C3088   1.403       .  A
C3084      C3085   1.413       .  A
C3084     Br3095   1.929       .  S
C3085      C3086   1.413       .  A
C3085     Br3091   1.928       .  S
C3086      C3087   1.422       .  A
C3087      C3088   1.406       .  A
C3087     Br3096   1.930       .  S
C3088     Br3092   1.934       .  S
C3097      C3098   1.409       .  A
C3097      C3102   1.412       .  A
C3098      C3099   1.412   1_556  A
C3098     Br3110   1.928       .  S
C3099      C3100   1.413       .  A
C3099     Br3114   1.929       .  S
C3100      C3103   1.497       .  S
C3100      C3101   1.410       .  A
C3101      C3102   1.410   1_554  A
C3101     Br3109   1.929       .  S
C3102     Br3113   1.930       .  S
C3103      C3104   1.413       .  A
C3103      C3108   1.407       .  A
C3104      C3105   1.415       .  A
C3104     Br3115   1.930       .  S
C3105      C3106   1.415       .  A
C3105     Br3111   1.929       .  S
C3106      C3107   1.420       .  A
C3107      C3108   1.410       .  A
C3107     Br3116   1.934       .  S
C3108     Br3112   1.931       .  S
C3117      C3118   1.407       .  A
C3117      C3122   1.407       .  A
C3118      C3119   1.409       .  A
C3118     Br3130   1.927       .  S
C3119      C3120   1.410       .  A
C3119     Br3134   1.927       .  S
C3120      C3123   1.484       .  S
C3120      C3121   1.410       .  A
C3121      C3122   1.404       .  A
C3121     Br3129   1.930       .  S
C3122     Br3133   1.929       .  S
C3123      C3124   1.411       .  A
C3123      C3128   1.403       .  A
C3124      C3125   1.412       .  A
C3124     Br3135   1.930       .  S
C3125      C3126   1.414       .  A
C3125     Br3131   1.929       .  S
C3126      C3127   1.421       .  A
C3127      C3128   1.404       .  A
C3127     Br3136   1.931       .  S
C3128     Br3132   1.934       .  S
C3137      C3138   1.415       .  A
C3137      C3142   1.408       .  A
C3138      C3139   1.405       .  A
C3138     Br3150   1.932       .  S
C3139      C3140   1.405       .  A
C3139     Br3154   1.930       .  S
C3140      C3143   1.484       .  S
C3140      C3141   1.412       .  A
C3141      C3142   1.410       .  A
C3141     Br3149   1.929       .  S
C3142     Br3153   1.928       .  S
C3143      C3144   1.410       .  A
C3143      C3148   1.407       .  A
C3144      C3145   1.408   1_655  A
C3144     Br3155   1.929       .  S
C3145      C3146   1.408       .  A
C3145     Br3151   1.928       .  S
C3146      C3147   1.412       .  A
C3147      C3148   1.406   1_455  A
C3147     Br3156   1.930       .  S
C3148     Br3152   1.929       .  S
C3157      C3158   1.413       .  A
C3157      C3162   1.409       .  A
C3158      C3159   1.404       .  A
C3158     Br3170   1.933       .  S
C3159      C3160   1.408       .  A
C3159     Br3174   1.931       .  S
C3160      C3163   1.485       .  S
C3160      C3161   1.411       .  A
C3161      C3162   1.410       .  A
C3161     Br3169   1.928       .  S
C3162     Br3173   1.927       .  S
C3163      C3164   1.413       .  A
C3163      C3168   1.405       .  A
C3164      C3165   1.412       .  A
C3164     Br3175   1.928       .  S
C3165      C3166   1.408       .  A
C3165     Br3171   1.926       .  S
C3166      C3167   1.412       .  A
C3167      C3168   1.403       .  A
C3167     Br3176   1.923       .  S
C3168     Br3172   1.933       .  S
C3177      C3178   1.409       .  A
C3177      C3182   1.410       .  A
C3178      C3179   1.408       .  A
C3178     Br3190   1.929       .  S
C3179      C3180   1.410       .  A
C3179     Br3194   1.929       .  S
C3180      C3183   1.479       .  S
C3180      C3181   1.406       .  A
C3181      C3182   1.403       .  A
C3181     Br3189   1.930       .  S
C3182     Br3193   1.931   1_554  S
C3183      C3184   1.403       .  A
C3183      C3188   1.411       .  A
C3184      C3185   1.403       .  A
C3184     Br3195   1.933       .  S
C3185      C3186   1.419       .  A
C3185     Br3191   1.936       .  S
C3186      C3187   1.410       .  A
C3187      C3188   1.409       .  A
C3187     Br3196   1.928       .  S
C3188     Br3192   1.929       .  S
C3197      C3198   1.408       .  A
C3197      C3202   1.407       .  A
C3198      C3199   1.406       .  A
C3198     Br3210   1.927       .  S
C3199      C3200   1.412       .  A
C3199     Br3214   1.931       .  S
C3200      C3203   1.494       .  S
C3200      C3201   1.414       .  A
C3201      C3202   1.411       .  A
C3201     Br3209   1.928       .  S
C3202     Br3213   1.927       .  S
C3203      C3204   1.405       .  A
C3203      C3208   1.412       .  A
C3204      C3205   1.407       .  A
C3204     Br3215   1.934       .  S
C3205      C3206   1.426       .  A
C3205     Br3211   1.937       .  S
C3206      C3207   1.422       .  A
C3207      C3208   1.415       .  A
C3207     Br3216   1.932       .  S
C3208     Br3212   1.934       .  S
C3217      C3218   1.413       .  A
C3217      C3222   1.420       .  A
C3218      C3219   1.413       .  A
C3218     Br3230   1.929       .  S
C3219      C3220   1.411       .  A
C3219     Br3234   1.929       .  S
C3220      C3223   1.492       .  S
C3220      C3221   1.405       .  A
C3221      C3222   1.409       .  A
C3221     Br3229   1.932       .  S
C3222     Br3233   1.930       .  S
C3223      C3224   1.409       .  A
C3223      C3228   1.411       .  A
C3224      C3225   1.410       .  A
C3224     Br3235   1.929       .  S
C3225      C3226   1.412       .  A
C3225     Br3231   1.930       .  S
C3226      C3227   1.410       .  A
C3227      C3228   1.411       .  A
C3227     Br3236   1.927       .  S
C3228     Br3232   1.929       .  S
C3237      C3238   1.408       .  A
C3237      C3242   1.409       .  A
C3238      C3239   1.409       .  A
C3238     Br3250   1.929       .  S
C3239      C3240   1.411       .  A
C3239     Br3254   1.929       .  S
C3240      C3243   1.492       .  S
C3240      C3241   1.411       .  A
C3241      C3242   1.410       .  A
C3241     Br3249   1.929       .  S
C3242     Br3253   1.929   1_655  S
C3243      C3244   1.405       .  A
C3243      C3248   1.413       .  A
C3244      C3245   1.406       .  A
C3244     Br3255   1.933       .  S
C3245      C3246   1.420       .  A
C3245     Br3251   1.936       .  S
C3246      C3247   1.412       .  A
C3247      C3248   1.415       .  A
C3247     Br3256   1.927       .  S
C3248     Br3252   1.928       .  S
C3257      C3258   1.410       .  A
C3257      C3262   1.419       .  A
C3258      C3259   1.413       .  A
C3258     Br3270   1.927       .  S
C3259      C3260   1.412       .  A
C3259     Br3274   1.928       .  S
C3260      C3263   1.486       .  S
C3260      C3261   1.404       .  A
C3261      C3262   1.405       .  A
C3261     Br3269   1.932       .  S
C3262     Br3273   1.934       .  S
C3263      C3264   1.410       .  A
C3263      C3268   1.410       .  A
C3264      C3265   1.409   1_655  A
C3264     Br3275   1.928       .  S
C3265      C3266   1.409       .  A
C3265     Br3271   1.928       .  S
C3266      C3267   1.407       .  A
C3267      C3268   1.407   1_455  A
C3267     Br3276   1.929       .  S
C3268     Br3272   1.930       .  S
C3277      C3278   1.407       .  A
C3277      C3282   1.414       .  A
C3278      C3279   1.411       .  A
C3278     Br3290   1.927       .  S
C3279      C3280   1.414       .  A
C3279     Br3294   1.929       .  S
C3280      C3283   1.485       .  S
C3280      C3281   1.405       .  A
C3281      C3282   1.404       .  A
C3281     Br3289   1.931       .  S
C3282     Br3293   1.932       .  S
C3283      C3284   1.408       .  A
C3283      C3288   1.411       .  A
C3284      C3285   1.406       .  A
C3284     Br3295   1.929       .  S
C3285      C3286   1.410       .  A
C3285     Br3291   1.930       .  S
C3286      C3287   1.408       .  A
C3287      C3288   1.409       .  A
C3287     Br3296   1.927       .  S
C3288     Br3292   1.929       .  S
C3297      C3298   1.427       .  A
C3297      C3302   1.422       .  A
C3298      C3299   1.408       .  A
C3298     Br3310   1.937       .  S
C3299      C3300   1.403       .  A
C3299     Br3314   1.933       .  S
C3300      C3303   1.492       .  S
C3300      C3301   1.410       .  A
C3301      C3302   1.415       .  A
C3301     Br3309   1.932       .  S
C3302     Br3313   1.932       .  S
C3303      C3304   1.408       .  A
C3303      C3308   1.412       .  A
C3304      C3305   1.406       .  A
C3304     Br3315   1.931       .  S
C3305      C3306   1.414       .  A
C3305     Br3311   1.932       .  S
C3306      C3307   1.410       .  A
C3307      C3308   1.414       .  A
C3307     Br3316   1.927       .  S
C3308     Br3312   1.927       .  S
C3317      C3318   1.416       .  A
C3317      C3322   1.425       .  A
C3318      C3319   1.414       .  A
C3318     Br3330   1.930       .  S
C3319      C3320   1.411       .  A
C3319     Br3334   1.929       .  S
C3320      C3323   1.494       .  S
C3320      C3321   1.405       .  A
C3321      C3322   1.410       .  A
C3321     Br3329   1.933       .  S
C3322     Br3333   1.935       .  S
C3323      C3324   1.409       .  A
C3323      C3328   1.411       .  A
C3324      C3325   1.409       .  A
C3324     Br3335   1.931       .  S
C3325      C3326   1.412       .  A
C3325     Br3331   1.927       .  S
C3326      C3327   1.411       .  A
C3327      C3328   1.413       .  A
C3327     Br3336   1.926       .  S
C3328     Br3332   1.928       .  S
C3337      C3338   1.413       .  A
C3337      C3342   1.422       .  A
C3338      C3339   1.412       .  A
C3338     Br3350   1.928       .  S
C3339      C3340   1.410       .  A
C3339     Br3354   1.930       .  S
C3340      C3343   1.487       .  S
C3340      C3341   1.404       .  A
C3341      C3342   1.408       .  A
C3341     Br3349   1.933       .  S
C3342     Br3353   1.932       .  S
C3343      C3344   1.410       .  A
C3343      C3348   1.410       .  A
C3344      C3345   1.408       .  A
C3344     Br3355   1.929       .  S
C3345      C3346   1.408       .  A
C3345     Br3351   1.928       .  S
C3346      C3347   1.408       .  A
C3347      C3348   1.408       .  A
C3347     Br3356   1.929       .  S
C3348     Br3352   1.928       .  S
C3357      C3358   1.411       .  A
C3357      C3362   1.413       .  A
C3358      C3359   1.413       .  A
C3358     Br3370   1.929       .  S
C3359      C3360   1.413       .  A
C3359     Br3374   1.929       .  S
C3360      C3363   1.491       .  S
C3360      C3361   1.408       .  A
C3361      C3362   1.407       .  A
C3361     Br3369   1.930       .  S
C3362     Br3373   1.932       .  S
C3363      C3364   1.413       .  A
C3363      C3368   1.408       .  A
C3364      C3365   1.412       .  A
C3364     Br3375   1.929       .  S
C3365      C3366   1.410       .  A
C3365     Br3371   1.928       .  S
C3366      C3367   1.413       .  A
C3367      C3368   1.407       .  A
C3367     Br3376   1.932       .  S
C3368     Br3372   1.930       .  S
C3377      C3378   1.408       .  A
C3377      C3382   1.412       .  A
C3378      C3379   1.411       .  A
C3378     Br3390   1.928       .  S
C3379      C3380   1.413       .  A
C3379     Br3394   1.929       .  S
C3380      C3383   1.495       .  S
C3380      C3381   1.410       .  A
C3381      C3382   1.411       .  A
C3381     Br3389   1.930       .  S
C3382     Br3393   1.928       .  S
C3383      C3384   1.409       .  A
C3383      C3388   1.413       .  A
C3384      C3385   1.409       .  A
C3384     Br3395   1.931       .  S
C3385      C3386   1.416       .  A
C3385     Br3391   1.933       .  S
C3386      C3387   1.411       .  A
C3387      C3388   1.413       .  A
C3387     Br3396   1.928       .  S
C3388     Br3392   1.929       .  S
C3397      C3398   1.419       .  A
C3397      C3402   1.426       .  A
C3398      C3399   1.418       .  A
C3398     Br3410   1.929       .  S
C3399      C3400   1.412       .  A
C3399     Br3414   1.929       .  S
C3400      C3403   1.499       .  S
C3400      C3401   1.405       .  A
C3401      C3402   1.409       .  A
C3401     Br3409   1.932       .  S
C3402     Br3413   1.938       .  S
C3403      C3404   1.412       .  A
C3403      C3408   1.411       .  A
C3404      C3405   1.413       .  A
C3404     Br3415   1.928       .  S
C3405      C3406   1.410       .  A
C3405     Br3411   1.928       .  S
C3406      C3407   1.412       .  A
C3407      C3408   1.412       .  A
C3407     Br3416   1.928       .  S
C3408     Br3412   1.928       .  S
C3417      C3418   1.416       .  A
C3417      C3422   1.420       .  A
C3418      C3419   1.412       .  A
C3418     Br3430   1.931       .  S
C3419      C3420   1.412       .  A
C3419     Br3434   1.932       .  S
C3420      C3423   1.495       .  S
C3420      C3421   1.408       .  A
C3421      C3422   1.411       .  A
C3421     Br3429   1.931       .  S
C3422     Br3433   1.933       .  S
C3423      C3424   1.413       .  A
C3423      C3428   1.410       .  A
C3424      C3425   1.412       .  A
C3424     Br3435   1.929       .  S
C3425      C3426   1.411       .  A
C3425     Br3431   1.929       .  S
C3426      C3427   1.413       .  A
C3427      C3428   1.408       .  A
C3427     Br3436   1.932       .  S
C3428     Br3432   1.930       .  S
C3437      C3438   1.416       .  A
C3437      C3442   1.411       .  A
C3438      C3439   1.407       .  A
C3438     Br3450   1.933       .  S
C3439      C3440   1.407       .  A
C3439     Br3454   1.931       .  S
C3440      C3443   1.491       .  S
C3440      C3441   1.412       .  A
C3441      C3442   1.412       .  A
C3441     Br3449   1.928       .  S
C3442     Br3453   1.928       .  S
C3443      C3444   1.412       .  A
C3443      C3448   1.409       .  A
C3444      C3445   1.411       .  A
C3444     Br3455   1.930       .  S
C3445      C3446   1.409       .  A
C3445     Br3451   1.928       .  S
C3446      C3447   1.412       .  A
C3447      C3448   1.410       .  A
C3447     Br3456   1.930       .  S
C3448     Br3452   1.929       .  S
