geometry optimzed in LAMMPS
_audit_creation_date              2020-11-30 
_audit_creation_method            'lammps2cif' 
_symmetry_space_group_name_H-M    'P1' 
_symmetry_Int_Tables_number       1 
_symmetry_cell_setting            triclinic 
loop_ 
_symmetry_equiv_pos_as_xyz 
  x,y,z 
_cell_length_a                    43.08464814 
_cell_length_b                    43.8610346453981 
_cell_length_c                    54.51793749251926 
_cell_angle_alpha                 90.63294204760587 
_cell_angle_beta                  90.0992209666476 
_cell_angle_gamma                 120.40160417288008 
loop_ 
_atom_site_label 
_atom_site_type_symbol 
_atom_site_fract_x 
_atom_site_fract_y 
_atom_site_fract_z 
_atom_site_charge 
In1        In  0.15735265  0.04122190  0.75401776     1.36900
C2          C  0.19352935  0.10802863  0.76921310     0.80100
O3          O  0.15770319  0.06611103  0.71825369    -0.58300
O4          O  0.12942337  0.01003542  0.71942642    -0.49200
C5          C  0.20129995  0.01534214  0.75336793     0.72800
O6          O  0.20802383  0.04294230  0.74230044    -0.44100
C7          C  0.10190539  0.01167571  0.78546129     0.77500
O8          O  0.20356703  0.08635077  0.77409331    -0.55900
O9          O  0.09785391  0.01063725  0.76248834    -0.46000
O10         O  0.16449902  0.09547940  0.75721189    -0.52400
C11         C  0.13940831  0.03732885  0.70676730     0.87700
O12         O  0.17149072  0.99997448  0.76414708    -0.54300
O13         O  0.13427267  0.02747184  0.79236987    -0.57500
In14       In  0.35782684  0.42571018  0.74090345     1.36900
C15         C  0.30867994  0.36440510  0.75910598     0.80100
O16         O  0.35929495  0.40355705  0.70404090    -0.58300
O17         O  0.38727924  0.45938586  0.70819743    -0.49200
C18         C  0.31880310  0.45720823  0.74338338     0.72800
O19         O  0.34905648  0.47013669  0.75392713    -0.44100
C20         C  0.41689558  0.43902567  0.76670954     0.77500
O21         O  0.32398979  0.39231907  0.77197759    -0.55900
O22         O  0.39977133  0.41249309  0.75281177    -0.46000
O23         O  0.31834990  0.36776001  0.73707808    -0.52400
C24         C  0.37788537  0.43307623  0.69414157     0.87700
O25         O  0.30939476  0.42938230  0.73118023    -0.54300
O26         O  0.40423402  0.45943000  0.76731153    -0.57500
C27         C  0.99898925  0.47439822  0.80896708     0.00100
In28       In  0.05784594  0.12252703  0.86695619     1.36900
C29         C  0.12539869  0.16610517  0.85401748     0.79800
O30         O  0.08330012  0.10889080  0.89773314    -0.58300
O31         O  0.03495001  0.10897861  0.90515086    -0.49200
C32         C  0.02622073  0.16148460  0.86434115     0.72800
O33         O  0.00833580  0.12862828  0.86793815    -0.44100
C34         C  0.03083205  0.06545628  0.83702278     0.77500
O35         O  0.11360926  0.16774867  0.87478957    -0.55900
O36         O  0.03761707  0.06462826  0.85942299    -0.46000
O37         O  0.10306023  0.14178368  0.84002193    -0.52400
C38         C  0.06014498  0.10513226  0.91332083     0.87700
O39         O  0.05934482  0.17382078  0.86170288    -0.54300
O40         O  0.03616518  0.09501862  0.83015789    -0.57500
In41       In  0.44982531  0.32996027  0.87059502     1.36900
C42         C  0.38267795  0.28753086  0.85527787     0.80100
O43         O  0.42105283  0.33318575  0.90403562    -0.58300
O44         O  0.47775030  0.35605118  0.90639791    -0.49200
C45         C  0.47492278  0.28574417  0.86575036     0.72800
O46         O  0.45966910  0.29198766  0.84846334    -0.44100
C47         C  0.48282433  0.38996433  0.84460978     0.77500
O48         O  0.39456222  0.28199507  0.87479793    -0.55900
O49         O  0.45493265  0.38079194  0.85706509    -0.46000
O50         O  0.40498142  0.31430579  0.84357787    -0.52400
C51         C  0.44901533  0.34905190  0.91712218     0.87700
O52         O  0.47935660  0.30353234  0.88506235    -0.54300
O53         O  0.49484370  0.36914923  0.84613889    -0.57500
C54         C  0.26048220  0.27172608  0.79367453     0.89100
C55         C  0.25103703  0.23831390  0.77855760    -0.51200
C56         C  0.24525997  0.21046241  0.79276162     0.12000
C57         C  0.24999808  0.21864765  0.82040378     0.22900
C58         C  0.22937010  0.26008064  0.81174286    -0.51900
C59         C  0.22371691  0.23190921  0.82554086     0.12100
C60         C  0.29300690  0.27912160  0.80923650    -0.51400
C61         C  0.28772804  0.25148520  0.82312228     0.12700
H62         H  0.24737581  0.23632514  0.75876013     0.17200
H63         H  0.24545052  0.19591082  0.83180937     0.02900
H64         H  0.21176284  0.27109075  0.81215362     0.17500
H65         H  0.31842104  0.30404492  0.80902070     0.17300
C66         C  0.01412889  0.47684704  0.14151965     0.00100
In67       In  0.11221853  0.42463256  0.20093050     1.36900
C68         C  0.08847412  0.35767767  0.18826048     0.80100
O69         O  0.07598992  0.40449254  0.23363683    -0.58300
O70         O  0.12342543  0.45492059  0.23677679    -0.49200
C71         C  0.18411415  0.45388050  0.19927032     0.72800
O72         O  0.16290660  0.42180482  0.20354458    -0.44100
C73         C  0.07869137  0.44772730  0.17061713     0.77500
O74         O  0.09609136  0.36855268  0.21007720    -0.55900
O75         O  0.06737692  0.43620550  0.19176988    -0.46000
O76         O  0.09289083  0.38078786  0.17293142    -0.52400
C77         C  0.09588048  0.43076877  0.24712668     0.87700
O78         O  0.16890263  0.47166409  0.19583235    -0.54300
O79         O  0.10730612  0.44809953  0.16520067    -0.57500
In80       In  0.41938575  0.03801782  0.20072410     1.36900
C81         C  0.44459803  0.10364993  0.18546456     0.80100
O82         O  0.45212183  0.06670992  0.23420237    -0.58300
O83         O  0.41459423  0.01183740  0.23711633    -0.49200
C84         C  0.34792290  0.00628721  0.19997222     0.72800
O85         O  0.36752129  0.03280857  0.21330932    -0.44100
C86         C  0.44799860  0.00984911  0.17092699     0.77500
O87         O  0.41161642  0.08080631  0.18494001    -0.55900
O88         O  0.44564035  0.00539919  0.19378989    -0.46000
O89         O  0.46487992  0.09303273  0.19348393    -0.52400
C90         C  0.43773237  0.04001025  0.24767358     0.87700
O91         O  0.36457390  0.99498566  0.18731591    -0.54300
O92         O  0.43439136  0.02743973  0.16314459    -0.57500
C93         C  0.48721175  0.23975156  0.12362648     0.89100
C94         C  0.01268918  0.23326863  0.10930639    -0.51200
C95         C  0.03324060  0.22572173  0.12438779     0.12000
C96         C  0.02688663  0.22807800  0.15189120     0.22900
C97         C  0.46456770  0.20895063  0.14086079    -0.51900
C98         C  0.48494881  0.20083196  0.15566249     0.12100
C99         C  0.01125235  0.27220561  0.14075828    -0.51400
C100        C  0.03207040  0.26520924  0.15560227     0.12700
H101        H  0.01304849  0.23140350  0.08942483     0.17200
H102        H  0.04386294  0.22214274  0.16403060     0.02900
H103        H  0.43535263  0.19347694  0.14015733     0.17500
H104        H  0.01223639  0.29749887  0.14104560     0.17300
In105      In  0.41967684  0.33705798  0.08442789     1.36900
C106        C  0.44261210  0.29268826  0.09510005     0.80100
O107        O  0.45278392  0.34972457  0.05040585    -0.58300
O108        O  0.40648519  0.35523202  0.04933586    -0.49200
C109        C  0.34824010  0.29475264  0.08527935     0.72800
O110        O  0.36978002  0.28359224  0.08319653    -0.44100
C111        C  0.45361174  0.39262224  0.11598528     0.77500
O112        O  0.44417372  0.30408282  0.07381407    -0.55900
O113        O  0.46347292  0.39366560  0.09414410    -0.46000
O114        O  0.43055242  0.30479728  0.11113624    -0.52400
C115        C  0.43248951  0.35645764  0.03782449     0.87700
O116        O  0.36286041  0.32794997  0.08676002    -0.54300
O117        O  0.42617507  0.36382303  0.12142654    -0.57500
In118      In  0.10176237  0.12908633  0.08002632     1.36900
C119        C  0.08055963  0.17212508  0.09831091     0.80100
O120        O  0.07874831  0.12945736  0.04349721    -0.58300
O121        O  0.10500447  0.09952647  0.04680036    -0.49200
C122        C  0.17312931  0.17172040  0.08330290     0.72800
O123        O  0.15496843  0.15186377  0.10054995    -0.44100
C124        C  0.06007647  0.06664757  0.10157699     0.77500
O125        O  0.09317204  0.15768898  0.11165904    -0.55900
O126        O  0.04814943  0.08313542  0.08986902    -0.46000
O127        O  0.07904006  0.16490262  0.07583786    -0.52400
C128        C  0.08849215  0.10989830  0.03315755     0.87700
O129        O  0.15531829  0.16868035  0.06426089    -0.54300
O130        O  0.09399355  0.08164318  0.10208336    -0.57500
C131        C  0.00875086  0.49158025  0.47480658     0.00100
In132      In  0.15619994  0.07885818  0.54026760     1.36900
C133        C  0.20386177  0.06025188  0.52789056     0.80100
O134        O  0.15233753  0.04742401  0.57351224    -0.58300
O135        O  0.13037084  0.08107431  0.57590942    -0.49200
C136        C  0.19328303  0.14897557  0.53694015     0.72800
O137        O  0.19624384  0.13281003  0.55486706    -0.44100
C138        C  0.10063608  0.04693216  0.50861230     0.77500
O139        O  0.21160022  0.09197004  0.52913956    -0.55900
O140        O  0.09717029  0.05600298  0.53000717    -0.46000
O141        O  0.17190116  0.03780555  0.53334596    -0.52400
C142        C  0.13718957  0.05976366  0.58661477     0.87700
O143        O  0.16991574  0.12963261  0.52118341    -0.54300
O144        O  0.13226536  0.05504138  0.50338092    -0.57500
In145      In  0.35401656  0.39207152  0.52839294     1.36900
C146        C  0.31227536  0.41757633  0.51524868     0.80100
O147        O  0.37574182  0.43334053  0.55835058    -0.58300
O148        O  0.36856727  0.38257869  0.56594357    -0.49200
C149        C  0.31101780  0.32205621  0.52865690     0.72800
O150        O  0.30166901  0.34314252  0.53656676    -0.44100
C151        C  0.41231644  0.42149465  0.49932651     0.77500
O152        O  0.32202756  0.41840036  0.53709684    -0.55900
O153        O  0.41418352  0.42004295  0.52229650    -0.46000
O154        O  0.32361198  0.40369105  0.50009857    -0.52400
C155        C  0.37730300  0.41305208  0.57389931     0.87700
O156        O  0.34263972  0.33644339  0.52056072    -0.54300
O157        O  0.38063614  0.40657521  0.49104099    -0.57500
C158        C  0.30642663  0.03334334  0.46099485     0.89100
C159        C  0.27836035  0.51458420  0.44452635    -0.51200
C160        C  0.24789848  0.49173594  0.45687990     0.12000
C161        C  0.25331585  0.49001148  0.48452907     0.22900
C162        C  0.29690104  0.05271025  0.48057662    -0.51900
C163        C  0.26770332  0.03027972  0.49425049     0.12100
C164        C  0.31428078  0.50495406  0.47453059    -0.51400
C165        C  0.28395529  0.48193808  0.48652921     0.12700
H166        H  0.27865647  0.51944409  0.42499461     0.17200
H167        H  0.22839838  0.47122725  0.49438024     0.02900
H168        H  0.31038645  0.08131799  0.48237672     0.17500
H169        H  0.33824472  0.50264340  0.47425044     0.17300
In170      In  0.46815417  0.09282340  0.41373132     1.36900
C171        C  0.40333903  0.07853201  0.42876812     0.80100
O172        O  0.44221164  0.05243560  0.38332463    -0.58300
O173        O  0.49087673  0.10007545  0.37568559    -0.49200
C174        C  0.50121738  0.16308631  0.41881142     0.72800
O175        O  0.50448043  0.14405040  0.43455029    -0.44100
C176        C  0.49470606  0.05753865  0.43776736     0.77500
O177        O  0.42986630  0.08925550  0.44311713    -0.55900
O178        O  0.46289430  0.05114811  0.44000377    -0.46000
O179        O  0.40974707  0.07522018  0.40670519    -0.52400
C180        C  0.46549271  0.07096630  0.36767176     0.87700
O181        O  0.48273557  0.14659607  0.40027247    -0.54300
O182        O  0.51331741  0.08215435  0.42314024    -0.57500
In183      In  0.07714144  0.40926059  0.41626581     1.36900
C184        C  0.14485982  0.44245744  0.43172611     0.80100
O185        O  0.10352005  0.43657912  0.38125237    -0.58300
O186        O  0.04750006  0.39952236  0.38006151    -0.49200
C187        C  0.05164763  0.33973412  0.41739201     0.72800
O188        O  0.08112829  0.36115833  0.40769268    -0.44100
C189        C  0.04580004  0.43403945  0.44685828     0.77500
O190        O  0.12395606  0.40990369  0.43474611    -0.55900
O191        O  0.04690431  0.43824070  0.42396429    -0.46000
O192        O  0.13099790  0.45847040  0.42163541    -0.52400
C193        C  0.07535503  0.42058974  0.36842206     0.87700
O194        O  0.03433771  0.35348503  0.42601605    -0.54300
O195        O  0.05970862  0.41640705  0.45395511    -0.57500
C196        C  0.51575264  0.20054607  0.42193853    -0.15900
C197        C  0.02278912  0.23612431  0.42022258     0.08100
C198        C  0.03133368  0.27187427  0.41984253     0.10000
C199        C  0.03942401  0.30255737  0.41886819    -0.16800
C200        C  0.18187847  0.45985268  0.43900600    -0.10700
C201        C  0.21264276  0.47415892  0.44594230    -0.12300
C202        C  0.36800892  0.06879337  0.43729948    -0.10700
C203        C  0.33874680  0.05587137  0.44665220    -0.12300
C204        C  0.28279489  0.45302949  0.49937084    -0.10700
C205        C  0.29216640  0.43373537  0.50780342    -0.12300
C206        C  0.21646670  0.18639721  0.53416040    -0.15900
C207        C  0.23834905  0.21737452  0.53210860     0.08100
C208        C  0.26494034  0.25344070  0.53015714     0.10000
C209        C  0.28701303  0.28449409  0.52902852    -0.16800
C210        C  0.22919861  0.05051504  0.51958062    -0.10700
C211        C  0.24885408  0.04226056  0.50966557    -0.12300
C212        C  0.48891032  0.01317374  0.46783997    -0.13900
C213        C  0.50892055  0.03776683  0.45110656    -0.29000
H214        H  0.46213641  0.00872040  0.47159217     0.15200
H215        H  0.03959434  0.04856564  0.44900526     0.15700
C216        C  0.01923276  0.47114763  0.45698701    -0.13900
C217        C  0.03078099  0.44932015  0.46428748    -0.29000
H218        H  0.01916374  0.47596684  0.43745187     0.15200
H219        H  0.03141069  0.44442947  0.48372568     0.15700
C220        C  0.47721428  0.46262287  0.49313234    -0.13900
C221        C  0.44433140  0.44054396  0.48343967    -0.29000
H222        H  0.47963155  0.46353451  0.51296140     0.15200
H223        H  0.44031705  0.43883674  0.46374713     0.15700
C224        C  0.07058883  0.02714064  0.49106759    -0.13900
C225        C  0.03615789  0.01717752  0.49624621    -0.29000
H226        H  0.07722658  0.01952180  0.47375121     0.15200
H227        H  0.03511532  0.51131356  0.51215793     0.15700
C228        C  0.21100968  0.19708919  0.08527739    -0.15900
C229        C  0.24223801  0.22026681  0.08600860     0.08100
C230        C  0.27857944  0.24807230  0.08615512     0.10000
C231        C  0.30997408  0.27081629  0.08589813    -0.16800
C232        C  0.05387149  0.21049044  0.11537466    -0.10700
C233        C  0.06769294  0.19424701  0.10790752    -0.12300
C234        C  0.46659432  0.25095284  0.10867044    -0.10700
C235        C  0.45410893  0.26808354  0.10083649    -0.12300
C236        C  0.46243180  0.06038105  0.34229475    -0.15900
C237        C  0.45841700  0.05297137  0.32067662     0.08100
C238        C  0.45237888  0.04613519  0.29516264     0.10000
C239        C  0.44619914  0.04211942  0.27338797    -0.16800
C240        C  0.46976028  0.16801584  0.16864874    -0.10700
C241        C  0.45808581  0.13902628  0.17714745    -0.12300
C242        C  0.08842114  0.43208865  0.27273034    -0.15900
C243        C  0.08306292  0.43106370  0.29453963     0.08100
C244        C  0.07819986  0.42837847  0.32028516     0.10000
C245        C  0.07563989  0.42520522  0.34229936    -0.16800
C246        C  0.30955984  0.99112345  0.19892618    -0.15900
C247        C  0.29179623  0.48942863  0.19985840     0.08100
C248        C  0.25457259  0.47854819  0.19882651     0.10000
C249        C  0.22267625  0.46856024  0.19862125    -0.16800
C250        C  0.07420954  0.32140801  0.18127988    -0.10700
C251        C  0.05738896  0.29259670  0.17179434    -0.12300
C252        C  0.04536000  0.01586356  0.12932871    -0.13900
C253        C  0.03528574  0.03309581  0.11382694    -0.29000
H254        H  0.07405331  0.02594280  0.13254191     0.15200
H255        H  0.00649870  0.02295428  0.11102637     0.15700
C256        C  0.49944432  0.45444481  0.12834530    -0.13900
C257        C  0.47253660  0.42183163  0.13418184    -0.29000
H258        H  0.50746356  0.45993010  0.10926939     0.15200
H259        H  0.46397881  0.41630021  0.15313940     0.15700
C260        C  0.46699874  0.99754266  0.15461963    -0.13900
C261        C  0.48428403  0.98157763  0.16364282    -0.29000
H262        H  0.47021063  0.00530483  0.13563162     0.15200
H263        H  0.48083341  0.97517304  0.18295141     0.15700
C264        C  0.03288114  0.46454796  0.15964209    -0.13900
C265        C  0.06018661  0.45936590  0.15317517    -0.29000
H266        H  0.02402932  0.46013748  0.17859247     0.15200
H267        H  0.06976761  0.46440650  0.13442404     0.15700
C268        C  0.43766186  0.36284261  0.01190143    -0.15900
C269        C  0.44155452  0.36415025  0.98991845     0.08100
C270        C  0.44540910  0.36193552  0.96426300     0.10000
C271        C  0.44782480  0.35744244  0.94259686    -0.16800
C272        C  0.34611994  0.26603194  0.84714592    -0.10700
C273        C  0.31689462  0.25442668  0.83777775    -0.12300
C274        C  0.08159226  0.10103468  0.00749213    -0.15900
C275        C  0.07524872  0.09711832  0.98573713     0.08100
C276        C  0.06813774  0.09624755  0.96030719     0.10000
C277        C  0.06330538  0.09856548  0.93874599    -0.16800
C278        C  0.48482517  0.25902840  0.86396784    -0.15900
C279        C  0.99539292  0.23468274  0.86379842     0.08100
C280        C  0.00251565  0.20647136  0.86359316     0.10000
C281        C  0.01092085  0.18402724  0.86373469    -0.16800
C282        C  0.16135434  0.19068550  0.84654858    -0.10700
C283        C  0.19064852  0.21075801  0.83845966    -0.12300
C284        C  0.48595966  0.44361718  0.82793519    -0.13900
C285        C  0.49946301  0.42180052  0.82893289    -0.29000
H286        H  0.96545910  0.43630216  0.83771350     0.15200
H287        H  0.52227048  0.42654574  0.81782526     0.15700
C288        C  0.01253194  0.00337393  0.82804524    -0.13900
C289        C  0.01919704  0.03495065  0.81992578    -0.29000
H290        H  0.01400032  0.00075945  0.84779009     0.15200
H291        H  0.01764616  0.03883636  0.80040301     0.15700
C292        C  0.38649804  0.43592297  0.66850583    -0.15900
C293        C  0.38996684  0.43464270  0.64662252     0.08100
C294        C  0.38995965  0.42975232  0.62094284     0.10000
C295        C  0.38635162  0.42322377  0.59921548    -0.16800
C296        C  0.44887558  0.44482806  0.78093867    -0.13900
C297        C  0.46686824  0.47179622  0.79707500    -0.29000
H298        H  0.45771718  0.42572249  0.77832315     0.15200
H299        H  0.45758496  0.49054469  0.79982606     0.15700
C300        C  0.28380152  0.33078071  0.76915428    -0.10700
C301        C  0.26858965  0.30263546  0.77912073    -0.12300
C302        C  0.12985255  0.05109965  0.61214358    -0.15900
C303        C  0.12733496  0.04467290  0.63378787     0.08100
C304        C  0.12799076  0.03884703  0.65924635     0.10000
C305        C  0.13146895  0.03629438  0.68099895    -0.16800
C306        C  0.03721110  0.98160408  0.79498072    -0.13900
C307        C  0.07148006  0.99680881  0.80297127    -0.29000
H308        H  0.03300467  0.97866329  0.77518527     0.15200
H309        H  0.07735886  0.00069702  0.82255416     0.15700
C310        C  0.22653624  0.00327820  0.75430465    -0.15900
C311        C  0.24398103  0.48686302  0.74711883     0.08100
C312        C  0.27270588  0.47993098  0.74652956     0.10000
C313        C  0.29564366  0.47185763  0.74549653    -0.16800
C314        C  0.21379681  0.14444327  0.77667290    -0.10700
C315        C  0.22968790  0.17493073  0.78329916    -0.12300
In316      In  0.14891019  0.52970137  0.74885988     1.36900
C317        C  0.18819016  0.59668263  0.76387342     0.80100
O318        O  0.14308678  0.55414163  0.71467103    -0.58300
O319        O  0.12939260  0.50039551  0.71241413    -0.49200
C320        C  0.19396767  0.50488676  0.74732865     0.72800
O321        O  0.20203376  0.53502522  0.73990126    -0.44100
C322        C  0.09256589  0.50161427  0.77990385     0.77500
O323        O  0.19625961  0.57369604  0.76916169    -0.55900
O324        O  0.08922567  0.50432179  0.75721760    -0.46000
O325        O  0.15943958  0.58534980  0.75177147    -0.52400
C326        C  0.13282099  0.52706541  0.70140047     0.87700
O327        O  0.16218846  0.48642873  0.75510487    -0.54300
O328        O  0.12431067  0.51155988  0.78655071    -0.57500
In329      In  0.35536615  0.92597623  0.75314029     1.36900
C330        C  0.30889223  0.85825112  0.76015784     0.80100
O331        O  0.36768370  0.90276808  0.72023859    -0.58300
O332        O  0.37269770  0.95327872  0.71681398    -0.49200
C333        C  0.31878674  0.95931269  0.75801909     0.72800
O334        O  0.35033179  0.97448078  0.74977765    -0.44100
C335        C  0.41078386  0.94933269  0.78472073     0.77500
O336        O  0.33669129  0.87574544  0.77324879    -0.55900
O337        O  0.41328339  0.94472611  0.76212831    -0.46000
O338        O  0.30481612  0.87509949  0.74312533    -0.52400
C339        C  0.37430171  0.92825518  0.70655914     0.87700
O340        O  0.30685367  0.92813519  0.76490662    -0.54300
O341        O  0.38023229  0.94348460  0.79112640    -0.57500
C342        C  0.00463675  0.97170597  0.81143937     0.00100
In343      In  0.06465391  0.62357413  0.86913425     1.36900
C344        C  0.13126583  0.66328231  0.85317014     0.79800
O345        O  0.09302918  0.62171817  0.90299482    -0.58300
O346        O  0.03599016  0.59683625  0.90397001    -0.49200
C347        C  0.03536387  0.66440296  0.87117844     0.72800
O348        O  0.06274297  0.67062989  0.88340927    -0.44100
C349        C  0.03638769  0.56890930  0.83731234     0.77500
O350        O  0.10897825  0.67373334  0.85357878    -0.55900
O351        O  0.03548505  0.56514203  0.86022562    -0.46000
O352        O  0.11965372  0.63235477  0.86071124    -0.52400
C353        C  0.06475363  0.60486121  0.91527882     0.87700
O354        O  0.02143183  0.63616339  0.85859026    -0.54300
O355        O  0.05019744  0.60052176  0.83066418    -0.57500
In356      In  0.45133258  0.82484741  0.86549546     1.36900
C357        C  0.38457835  0.78148987  0.84960575     0.80100
O358        O  0.42414762  0.82876017  0.89936814    -0.58300
O359        O  0.48089538  0.85069592  0.90087445    -0.49200
C360        C  0.48219991  0.78539323  0.86824555     0.72800
O361        O  0.45319357  0.77760676  0.87868388    -0.44100
C362        C  0.47591582  0.88073073  0.83529333     0.77500
O363        O  0.39247004  0.80700782  0.86408416    -0.55900
O364        O  0.47785263  0.88360510  0.85830430    -0.46000
O365        O  0.41070384  0.77820659  0.84297699    -0.52400
C366        C  0.45262420  0.84439821  0.91200545     0.87700
O367        O  0.49662737  0.81424357  0.85689566    -0.54300
O368        O  0.46280715  0.84944569  0.82757373    -0.57500
C369        C  0.26136866  0.76127656  0.78674012     0.89100
C370        C  0.25026609  0.72733617  0.77183690    -0.51200
C371        C  0.24524361  0.69977127  0.78611494     0.12000
C372        C  0.25240438  0.70885378  0.81363106     0.22900
C373        C  0.23189948  0.75061443  0.80603235    -0.51900
C374        C  0.22706358  0.72282317  0.81991549     0.12100
C375        C  0.29493520  0.76874027  0.80103395    -0.51400
C376        C  0.29044093  0.74157285  0.81510202     0.12700
H377        H  0.24475847  0.72475157  0.75222516     0.17200
H378        H  0.24845932  0.68641750  0.82514057     0.02900
H379        H  0.21486961  0.76221059  0.80740695     0.17500
H380        H  0.32022094  0.79375762  0.80034871     0.17300
C381        C  0.01722047  0.98400693  0.14370602     0.00100
In382      In  0.10009492  0.91762397  0.20378780     1.36900
C383        C  0.07357394  0.84974720  0.19227660     0.80100
O384        O  0.10853927  0.94997925  0.23829118    -0.58300
O385        O  0.06822048  0.89562363  0.23827532    -0.49200
C386        C  0.17136975  0.94786631  0.20155316     0.72800
O387        O  0.15293305  0.92658636  0.21804024    -0.44100
C388        C  0.07228815  0.94386656  0.17167026     0.77500
O389        O  0.05384744  0.86268763  0.19654785    -0.55900
O390        O  0.07294847  0.94889993  0.19453210    -0.46000
O391        O  0.10677158  0.87116219  0.19417277    -0.52400
C392        C  0.08484301  0.92427057  0.25020732     0.87700
O393        O  0.15373330  0.95497476  0.18651389    -0.54300
O394        O  0.08655892  0.92616452  0.16517024    -0.57500
In395      In  0.43390382  0.54752204  0.20986992     1.36900
C396        C  0.44865466  0.61000566  0.19226397     0.80100
O397        O  0.46343963  0.57425572  0.24456571    -0.58300
O398        O  0.42963548  0.51824987  0.24474813    -0.49200
C399        C  0.36203980  0.51425866  0.20443652     0.72800
O400        O  0.37778183  0.52595320  0.22473246    -0.44100
C401        C  0.47682089  0.52657203  0.18925615     0.77500
O402        O  0.44793073  0.58600399  0.17899313    -0.55900
O403        O  0.48823743  0.55599088  0.19985256    -0.46000
O404        O  0.44214611  0.60240019  0.21454482    -0.52400
C405        C  0.45069547  0.54615027  0.25662225     0.87700
O406        O  0.38264923  0.51772826  0.18696613    -0.54300
O407        O  0.44294563  0.50719447  0.18906833    -0.57500
C408        C  0.47940290  0.74435006  0.12960962     0.89100
C409        C  0.00832808  0.73262930  0.10722696    -0.51200
C410        C  0.02904001  0.72544766  0.12248677     0.12000
C411        C  0.02003300  0.72462458  0.14978859     0.22900
C412        C  0.45746260  0.71164950  0.14561565    -0.51900
C413        C  0.47851445  0.70452431  0.16058874     0.12100
C414        C  0.00068668  0.76636254  0.14000474    -0.51400
C415        C  0.02167178  0.75991576  0.15503788     0.12700
H416        H  0.00984826  0.73197987  0.08734680     0.17200
H417        H  0.03722858  0.71920968  0.16210259     0.02900
H418        H  0.42843806  0.69465003  0.14415853     0.17500
H419        H  0.99932545  0.79043034  0.14134413     0.17300
In420      In  0.41347239  0.83818940  0.07898170     1.36900
C421        C  0.43321919  0.79325642  0.09535514     0.80100
O422        O  0.45050404  0.85080263  0.04691295    -0.58300
O423        O  0.40109756  0.84946001  0.04098866    -0.49200
C424        C  0.34247008  0.79525399  0.08335824     0.72800
O425        O  0.36001858  0.82185164  0.09724469    -0.44100
C426        C  0.44798605  0.90169250  0.10264693     0.77500
O427        O  0.41426709  0.80199139  0.10783108    -0.55900
O428        O  0.45531477  0.87760639  0.10572902    -0.46000
O429        O  0.44240219  0.80763188  0.07472237    -0.52400
C430        C  0.42970758  0.85328361  0.03188852     0.87700
O431        O  0.36075347  0.79147781  0.06695035    -0.54300
O432        O  0.42261720  0.89333316  0.08760695    -0.57500
In433      In  0.09732892  0.62642985  0.08206897     1.36900
C434        C  0.07534355  0.66962191  0.09888920     0.80100
O435        O  0.07654778  0.62661342  0.04464605    -0.58300
O436        O  0.10280732  0.59707993  0.04944788    -0.49200
C437        C  0.16840672  0.66984990  0.08579864     0.72800
O438        O  0.15104165  0.64625512  0.10138735    -0.44100
C439        C  0.05586988  0.56388628  0.10368779     0.77500
O440        O  0.09396127  0.66111360  0.11186418    -0.55900
O441        O  0.04385684  0.58151832  0.09365966    -0.46000
O442        O  0.06759533  0.65573835  0.07784194    -0.52400
C443        C  0.08681817  0.60707215  0.03507049     0.87700
O444        O  0.14984399  0.67048430  0.06822151    -0.54300
O445        O  0.08970968  0.57848344  0.10336247    -0.57500
C446        C  0.00359528  0.99248189  0.47995119     0.00100
In447      In  0.15846585  0.57973232  0.53651578     1.36900
C448        C  0.20503585  0.55967215  0.52403810     0.80100
O449        O  0.15189960  0.54530930  0.56845718    -0.58300
O450        O  0.13216827  0.58077638  0.57214848    -0.49200
C451        C  0.19401129  0.65008074  0.53591789     0.72800
O452        O  0.19691329  0.63282806  0.55312784    -0.44100
C453        C  0.10414596  0.55188580  0.50393241     0.77500
O454        O  0.21475707  0.59102228  0.52999527    -0.55900
O455        O  0.09925209  0.55112335  0.52680342    -0.46000
O456        O  0.17163778  0.53843512  0.52450252    -0.52400
C457        C  0.13749169  0.55793004  0.58204892     0.87700
O458        O  0.17174639  0.63161459  0.51935969    -0.54300
O459        O  0.13669414  0.56775092  0.49777186    -0.57500
In460      In  0.35067111  0.89458146  0.53869326     1.36900
C461        C  0.31357397  0.92422705  0.52344398     0.80100
O462        O  0.34904602  0.91734238  0.57530120    -0.58300
O463        O  0.37930879  0.89139218  0.57242431    -0.49200
C464        C  0.30905594  0.82445996  0.53716962     0.72800
O465        O  0.30125798  0.84417519  0.54928002    -0.44100
C466        C  0.40738268  0.92431699  0.50851140     0.77500
O467        O  0.34387070  0.94161027  0.53379071    -0.55900
O468        O  0.41036764  0.92847436  0.53147291    -0.46000
O469        O  0.30198825  0.89168318  0.52092199    -0.52400
C470        C  0.36862502  0.90777042  0.58587096     0.87700
O471        O  0.33881892  0.84026080  0.52626481    -0.54300
O472        O  0.37566092  0.90389319  0.50105678    -0.57500
C473        C  0.31147180  0.53398108  0.46144006     0.89100
C474        C  0.27164899  0.01168703  0.44588178    -0.51200
C475        C  0.24265899  0.98979628  0.45990100     0.12000
C476        C  0.25122481  0.99104681  0.48739816     0.22900
C477        C  0.30062562  0.55183759  0.48125647    -0.51900
C478        C  0.26985140  0.52862598  0.49314820     0.12100
C479        C  0.31145017  0.00623994  0.47499220    -0.51400
C480        C  0.28281346  0.98422211  0.48880818     0.12700
H481        H  0.26973823  0.01474059  0.42627686     0.17200
H482        H  0.22764297  0.97302590  0.49869045     0.02900
H483        H  0.31433951  0.58025839  0.48428694     0.17500
H484        H  0.33591403  0.00483923  0.47430558     0.17300
In485      In  0.47759775  0.60007417  0.42193960     1.36900
C486        C  0.41138590  0.58237958  0.43446847     0.80100
O487        O  0.44866069  0.56795730  0.38845236    -0.58300
O488        O  0.50566610  0.59939519  0.38705412    -0.49200
C489        C  0.50749217  0.67023677  0.42655741     0.72800
O490        O  0.48962730  0.64928437  0.44336591    -0.44100
C491        C  0.50290271  0.56623983  0.44900344     0.77500
O492        O  0.43136453  0.57610216  0.44778899    -0.55900
O493        O  0.47529382  0.55067224  0.43557335    -0.46000
O494        O  0.42508729  0.59777479  0.41467540    -0.52400
C495        C  0.47672108  0.57815316  0.37603519     0.87700
O496        O  0.51248045  0.65580340  0.40807430    -0.54300
O497        O  0.51840921  0.59951504  0.44832077    -0.57500
In498      In  0.07070659  0.91003512  0.41949725     1.36900
C499        C  0.13833465  0.94174201  0.43592517     0.80100
O500        O  0.09615255  0.93727237  0.38428780    -0.58300
O501        O  0.04021612  0.89958506  0.38363129    -0.49200
C502        C  0.04621009  0.84073882  0.41871927     0.72800
O503        O  0.07658046  0.86319493  0.41072738    -0.44100
C504        C  0.03921712  0.93492930  0.44998500     0.77500
O505        O  0.11492406  0.91102843  0.44213306    -0.55900
O506        O  0.04209551  0.94082685  0.42729690    -0.46000
O507        O  0.12709048  0.95688337  0.42200322    -0.52400
C508        C  0.06774694  0.92068470  0.37170977     0.87700
O509        O  0.02743854  0.85333242  0.42658397    -0.54300
O510        O  0.05160071  0.91589693  0.45684214    -0.57500
C511        C  0.51932183  0.70745045  0.42783882    -0.15900
C512        C  0.02252430  0.73879297  0.42090093     0.08100
C513        C  0.02845235  0.77360908  0.42015150     0.10000
C514        C  0.03481111  0.80374995  0.41940031    -0.16800
C515        C  0.17524306  0.95798903  0.44382547    -0.10700
C516        C  0.20618957  0.97170676  0.45057801    -0.12300
C517        C  0.37526875  0.57155219  0.44122640    -0.10700
C518        C  0.34513239  0.55755650  0.44902506    -0.12300
C519        C  0.28463327  0.95840799  0.50378364    -0.10700
C520        C  0.29475831  0.94081045  0.51405154    -0.12300
C521        C  0.21593919  0.68788326  0.53486649    -0.15900
C522        C  0.23700137  0.71926984  0.53452783     0.08100
C523        C  0.26310597  0.75569421  0.53481250     0.10000
C524        C  0.28505873  0.78687442  0.53561810    -0.16800
C525        C  0.23005080  0.54917400  0.51643225    -0.10700
C526        C  0.24975792  0.54020220  0.50754505    -0.12300
C527        C  0.50018373  0.51148179  0.46309254    -0.13900
C528        C  0.51565109  0.54708127  0.46451557    -0.29000
H529        H  0.47843976  0.49752121  0.44984179     0.15200
H530        H  0.03888012  0.56573266  0.46960923     0.15700
C531        C  0.01256465  0.97199162  0.46099308    -0.13900
C532        C  0.02419222  0.94990733  0.46761131    -0.29000
H533        H  0.01123672  0.97678725  0.44158480     0.15200
H534        H  0.02534697  0.94484479  0.48697530     0.15700
C535        C  0.47137617  0.96688759  0.49929030    -0.13900
C536        C  0.43790271  0.94292037  0.49144221    -0.29000
H537        H  0.47656370  0.97042518  0.51893051     0.15200
H538        H  0.43219496  0.93897022  0.47190313     0.15700
C539        C  0.07455088  0.53477915  0.48565025    -0.13900
C540        C  0.04018677  0.51395858  0.49261581    -0.29000
H541        H  0.08121611  0.53758417  0.46636082     0.15200
H542        H  0.03089279  0.02730209  0.51304676     0.15700
C543        C  0.20632294  0.69513392  0.08798252    -0.15900
C544        C  0.23751879  0.71847016  0.08847492     0.08100
C545        C  0.27365932  0.74673104  0.08779217     0.10000
C546        C  0.30472441  0.77008648  0.08628289    -0.16800
C547        C  0.04976102  0.71009287  0.11373658    -0.10700
C548        C  0.06311566  0.69290360  0.10730809    -0.12300
C549        C  0.45809256  0.75443305  0.11412675    -0.10700
C550        C  0.44487967  0.76992002  0.10444744    -0.12300
C551        C  0.47527793  0.56700638  0.35091124    -0.15900
C552        C  0.47151573  0.55845705  0.32947997     0.08100
C553        C  0.46514375  0.55052946  0.30407252     0.10000
C554        C  0.45875613  0.54656451  0.28230618    -0.16800
C555        C  0.46504957  0.67164257  0.17345493    -0.10700
C556        C  0.45667545  0.64361618  0.18265226    -0.12300
C557        C  0.07812098  0.92690514  0.27578617    -0.15900
C558        C  0.07352018  0.92743568  0.29761228     0.08100
C559        C  0.06944134  0.92647937  0.32342488     0.10000
C560        C  0.06745904  0.92447084  0.34551724    -0.16800
C561        C  0.32365802  0.49954934  0.20145273    -0.15900
C562        C  0.27783740  0.98122495  0.19863220     0.08100
C563        C  0.24103282  0.97108966  0.19892941     0.10000
C564        C  0.20946913  0.96175980  0.19976247    -0.16800
C565        C  0.05918852  0.81390915  0.18409258    -0.10700
C566        C  0.04396336  0.78618570  0.17302060    -0.12300
C567        C  0.04182397  0.51138511  0.12921377    -0.13900
C568        C  0.03127931  0.52896696  0.11438989    -0.29000
H569        H  0.07023052  0.52298192  0.13351991     0.15200
H570        H  0.00277260  0.51786652  0.11075015     0.15700
C571        C  0.49323264  0.94383599  0.13248354    -0.13900
C572        C  0.46722516  0.93656106  0.11571622    -0.29000
H573        H  0.49967247  0.92308061  0.13553302     0.15200
H574        H  0.45913181  0.95596784  0.11193968     0.15700
C575        C  0.50195582  0.51680081  0.17803172    -0.13900
C576        C  0.49166748  0.49001706  0.16169536    -0.29000
H577        H  0.53041258  0.53391756  0.18199180     0.15200
H578        H  0.46326025  0.47386331  0.15714376     0.15700
C579        C  0.03571129  0.97090901  0.16118574    -0.13900
C580        C  0.05592468  0.95711884  0.15384492    -0.29000
H581        H  0.03181169  0.97223097  0.18086804     0.15200
H582        H  0.05957959  0.95451896  0.13434361     0.15700
C583        C  0.43745459  0.85840087  0.00610564    -0.15900
C584        C  0.44346472  0.85962901  0.98439792     0.08100
C585        C  0.44926910  0.85776683  0.95901108     0.10000
C586        C  0.45230460  0.85330899  0.93744673    -0.16800
C587        C  0.34873526  0.75910323  0.84033562    -0.10700
C588        C  0.31983198  0.74598533  0.83023300    -0.12300
C589        C  0.08093533  0.59778007  0.00947684    -0.15900
C590        C  0.07531419  0.59379761  0.98767497     0.08100
C591        C  0.06927967  0.59342984  0.96217589     0.10000
C592        C  0.06577465  0.59668307  0.94058329    -0.16800
C593        C  0.49658558  0.76208745  0.86876527    -0.15900
C594        C  0.00806461  0.74025426  0.87104207     0.08100
C595        C  0.01526678  0.71215954  0.87086148     0.10000
C596        C  0.02251833  0.68893366  0.87092923    -0.16800
C597        C  0.16698885  0.68496736  0.84421718    -0.10700
C598        C  0.19562114  0.70318130  0.83466121    -0.12300
C599        C  0.49657748  0.94361706  0.82751646    -0.13900
C600        C  0.48695128  0.91113338  0.81872489    -0.29000
H601        H  0.99732380  0.94457973  0.84779686     0.15200
H602        H  0.48544029  0.90645811  0.79899715     0.15700
C603        C  0.01233165  0.50586385  0.82677056    -0.13900
C604        C  0.02320564  0.53906265  0.81956390    -0.29000
H605        H  0.01309985  0.50124022  0.84628828     0.15200
H606        H  0.02320823  0.54450721  0.80016199     0.15700
C607        C  0.38127701  0.92787166  0.68086899    -0.15900
C608        C  0.38339801  0.92528521  0.65898210     0.08100
C609        C  0.38186919  0.92016021  0.63329891     0.10000
C610        C  0.37740465  0.91468682  0.61149894    -0.16800
C611        C  0.44076838  0.95957604  0.80232695    -0.13900
C612        C  0.47311569  0.96614130  0.79448981    -0.29000
H613        H  0.43614639  0.96099006  0.82179658     0.15200
H614        H  0.47644402  0.96479131  0.77479396     0.15700
C615        C  0.28400489  0.82178827  0.76470218    -0.10700
C616        C  0.26877213  0.79218267  0.77244179    -0.12300
C617        C  0.12936502  0.54786532  0.60728043    -0.15900
C618        C  0.12596443  0.53994411  0.62865537     0.08100
C619        C  0.12508471  0.53197457  0.65381846     0.10000
C620        C  0.12690024  0.52757423  0.67548029    -0.16800
C621        C  0.02901824  0.48144595  0.79070072    -0.13900
C622        C  0.06249057  0.48949903  0.79757513    -0.29000
H623        H  0.02371482  0.48228566  0.77127074     0.15200
H624        H  0.06850864  0.48935188  0.81694561     0.15700
C625        C  0.21989118  0.49338922  0.74732017    -0.15900
C626        C  0.24915680  0.99497710  0.75565843     0.08100
C627        C  0.27570358  0.98538428  0.75740653     0.10000
C628        C  0.29695920  0.97530897  0.75836005    -0.16800
C629        C  0.21026946  0.63317067  0.77091533    -0.10700
C630        C  0.22772919  0.66380885  0.77713043    -0.12300
In631      In  0.65824713  0.04417709  0.75589407     1.36900
C632        C  0.69399324  0.11090685  0.77129592     0.80100
O633        O  0.64916468  0.06755366  0.72196862    -0.58300
O634        O  0.64034656  0.01548332  0.71919234    -0.49200
C635        C  0.70501593  0.02159526  0.75556811     0.72800
O636        O  0.71171571  0.05043921  0.74633563    -0.44100
C637        C  0.60237617  0.01245942  0.78675114     0.77500
O638        O  0.70416222  0.08933137  0.77610082    -0.55900
O639        O  0.59889077  0.01076940  0.76375249    -0.46000
O640        O  0.66508211  0.09834547  0.75918206    -0.52400
C641        C  0.64090074  0.04106093  0.70844888     0.87700
O642        O  0.67389757  0.00345541  0.76436545    -0.54300
O643        O  0.63451722  0.02926627  0.79405848    -0.57500
In644      In  0.85603759  0.42648082  0.73988581     1.36900
C645        C  0.80774867  0.36611101  0.75994091     0.80100
O646        O  0.85405800  0.40293602  0.70293583    -0.58300
O647        O  0.88869749  0.45836112  0.70729655    -0.49200
C648        C  0.81810592  0.45950057  0.74155174     0.72800
O649        O  0.84768087  0.47136591  0.75285558    -0.44100
C650        C  0.91532465  0.43856690  0.76489509     0.77500
O651        O  0.82402486  0.39460507  0.77208960    -0.55900
O652        O  0.89808792  0.41276342  0.75041741    -0.46000
O653        O  0.81564870  0.36844954  0.73758789    -0.52400
C654        C  0.87611788  0.43165807  0.69317937     0.87700
O655        O  0.80910603  0.43226244  0.72874858    -0.54300
O656        O  0.90268599  0.45897328  0.76650551    -0.57500
C657        C  0.49929878  0.47650129  0.81199845     0.00100
In658      In  0.55700469  0.12624611  0.86604703     1.36900
C659        C  0.62512173  0.16941378  0.85383089     0.79800
O660        O  0.58292983  0.12618303  0.90155490    -0.58300
O661        O  0.52584998  0.10110624  0.90058588    -0.49200
C662        C  0.52349274  0.16329749  0.86495834     0.72800
O663        O  0.55055636  0.17161881  0.87824663    -0.44100
C664        C  0.53360452  0.06994832  0.83574347     0.77500
O665        O  0.60029422  0.17523163  0.84818208    -0.55900
O666        O  0.53232833  0.06767303  0.85876321    -0.46000
O667        O  0.61519626  0.14100381  0.86497062    -0.52400
C668        C  0.55388480  0.10985330  0.91310055     0.87700
O669        O  0.51230972  0.13510558  0.85262992    -0.54300
O670        O  0.54591016  0.10090078  0.82809953    -0.57500
In671      In  0.95336192  0.32931745  0.86801953     1.36900
C672        C  0.88515389  0.28734244  0.85495780     0.80100
O673        O  0.92609562  0.33290451  0.90184785    -0.58300
O674        O  0.98330270  0.36070058  0.90198627    -0.49200
C675        C  0.97909386  0.28534715  0.86499107     0.72800
O676        O  0.96270375  0.28978728  0.84755078    -0.44100
C677        C  0.98349279  0.38712926  0.83985951     0.77500
O678        O  0.89834968  0.28154440  0.87370544    -0.55900
O679        O  0.95849243  0.38004244  0.85473034    -0.46000
O680        O  0.90676725  0.31384850  0.84277507    -0.52400
C681        C  0.95477868  0.35237892  0.91353775     0.87700
O682        O  0.98444475  0.30489675  0.88349325    -0.54300
O683        O  0.99419295  0.36515005  0.83982441    -0.57500
C684        C  0.76197085  0.27451876  0.79639129     0.89100
C685        C  0.75204321  0.24106204  0.78118551    -0.51200
C686        C  0.74620473  0.21310400  0.79526622     0.12000
C687        C  0.75134526  0.22118163  0.82290077     0.22900
C688        C  0.73116468  0.26305317  0.81468946    -0.51900
C689        C  0.72541253  0.23474852  0.82837228     0.12100
C690        C  0.79463149  0.28161041  0.81169748    -0.51400
C691        C  0.78923148  0.25378209  0.82545932     0.12700
H692        H  0.74808620  0.23912681  0.76141628     0.17200
H693        H  0.74675508  0.19833632  0.83420072     0.02900
H694        H  0.71360321  0.27410073  0.81518526     0.17500
H695        H  0.82020703  0.30635211  0.81131180     0.17300
C696        C  0.51910324  0.48398791  0.14765676     0.00100
In697      In  0.61214480  0.42219385  0.20228677     1.36900
C698        C  0.58697937  0.35478183  0.18935582     0.80100
O699        O  0.57493978  0.39858374  0.23446652    -0.58300
O700        O  0.62439800  0.44640253  0.24035087    -0.49200
C701        C  0.68384592  0.45270814  0.19840673     0.72800
O702        O  0.66237793  0.42135328  0.19179677    -0.44100
C703        C  0.58244292  0.45186323  0.17437522     0.77500
O704        O  0.60400497  0.36780314  0.20910888    -0.55900
O705        O  0.57145653  0.44016949  0.19551810    -0.46000
O706        O  0.58244317  0.37588999  0.17640690    -0.52400
C707        C  0.59561712  0.42233305  0.24944233     0.87700
O708        O  0.66892900  0.46929690  0.20617334    -0.54300
O709        O  0.60889002  0.44906585  0.16771583    -0.57500
In710      In  0.92480178  0.04133138  0.20229508     1.36900
C711        C  0.94826013  0.10612926  0.18559573     0.80100
O712        O  0.96111032  0.07261692  0.23384835    -0.58300
O713        O  0.92528498  0.01764560  0.23867695    -0.49200
C714        C  0.85359558  0.01341598  0.20332185     0.72800
O715        O  0.87056247  0.00775725  0.21971906    -0.44100
C716        C  0.94869734  0.00620589  0.17485342     0.77500
O717        O  0.95319558  0.08376981  0.17426287    -0.55900
O718        O  0.96806429  0.03020823  0.19011465    -0.46000
O719        O  0.93146740  0.09558022  0.20545265    -0.52400
C720        C  0.94886326  0.04667052  0.24803238     0.87700
O721        O  0.87256638  0.03202651  0.18588991    -0.54300
O722        O  0.91654916  0.99925645  0.17402950    -0.57500
C723        C  0.98719932  0.24193784  0.12336916     0.89100
C724        C  0.51078381  0.22848833  0.10957989    -0.51200
C725        C  0.53058231  0.21992353  0.12471310     0.12000
C726        C  0.52578207  0.22456780  0.15224880     0.22900
C727        C  0.96521152  0.20995402  0.13983442    -0.51900
C728        C  0.98618108  0.20254589  0.15459536     0.12100
C729        C  0.51288307  0.27023859  0.14022332    -0.51400
C730        C  0.53304606  0.26269142  0.15521044     0.12700
H731        H  0.50966392  0.22486180  0.08977376     0.17200
H732        H  0.54220021  0.21806053  0.16450406     0.02900
H733        H  0.93609759  0.19351849  0.13882489     0.17500
H734        H  0.51481834  0.29596681  0.14028873     0.17300
In735      In  0.91348397  0.33089110  0.07763690     1.36900
C736        C  0.93849550  0.28914996  0.09111180     0.80100
O737        O  0.94915280  0.34827438  0.04483427    -0.58300
O738        O  0.90082805  0.35011192  0.04274159    -0.49200
C739        C  0.84221542  0.28625022  0.07920247     0.72800
O740        O  0.86412443  0.27726230  0.07191726    -0.44100
C741        C  0.94644146  0.38713037  0.10852359     0.77500
O742        O  0.93445977  0.29414928  0.06896747    -0.55900
O743        O  0.95839402  0.38689022  0.08749073    -0.46000
O744        O  0.93032181  0.30569396  0.10628883    -0.52400
C745        C  0.92875129  0.35454385  0.03203570     0.87700
O746        O  0.85631408  0.31853338  0.08502042    -0.54300
O747        O  0.91714529  0.35953197  0.11321579    -0.57500
In748      In  0.59511746  0.11811930  0.08085811     1.36900
C749        C  0.56920612  0.15723675  0.09965281     0.80100
O750        O  0.55627532  0.10475006  0.04945789    -0.58300
O751        O  0.60819521  0.11242739  0.04171460    -0.49200
C752        C  0.66665002  0.16262908  0.08346472     0.72800
O753        O  0.65232216  0.13082177  0.08991207    -0.44100
C754        C  0.56360656  0.05324363  0.10162404     0.77500
O755        O  0.56462499  0.14713153  0.07758067    -0.55900
O756        O  0.57165361  0.05840130  0.07931162    -0.46000
O757        O  0.58546836  0.14598512  0.11260714    -0.52400
C758        C  0.57801944  0.10595384  0.03348926     0.87700
O759        O  0.64480247  0.17131836  0.07580237    -0.54300
O760        O  0.57265327  0.08128897  0.11361351    -0.57500
C761        C  0.51027604  0.48825104  0.47816845     0.00100
In762      In  0.65605922  0.07787688  0.54037956     1.36900
C763        C  0.70530475  0.06198533  0.52649025     0.80100
O764        O  0.64603926  0.04242596  0.57267730    -0.58300
O765        O  0.63915820  0.08660979  0.57783352    -0.49200
C766        C  0.69272630  0.14793009  0.53767031     0.72800
O767        O  0.70011422  0.13124484  0.55301034    -0.44100
C768        C  0.59909200  0.04440978  0.50987560     0.77500
O769        O  0.70677297  0.09036416  0.52075833    -0.55900
O770        O  0.59719986  0.05731380  0.53020835    -0.46000
O771        O  0.67877104  0.04153420  0.53942548    -0.52400
C772        C  0.63903659  0.06048501  0.58729825     0.87700
O773        O  0.66569552  0.12904268  0.52417247    -0.54300
O774        O  0.62970406  0.04909622  0.50523657    -0.57500
In775      In  0.85493797  0.39075295  0.52673455     1.36900
C776        C  0.81622770  0.41967296  0.51434094     0.80100
O777        O  0.86896921  0.42702979  0.55930702    -0.58300
O778        O  0.87394779  0.38145127  0.56301248    -0.49200
C779        C  0.80899001  0.32107161  0.52672263     0.72800
O780        O  0.79907367  0.34338068  0.52522258    -0.44100
C781        C  0.91304707  0.42086888  0.49750225     0.77500
O782        O  0.81975894  0.41310066  0.53623295    -0.55900
O783        O  0.91384478  0.42823673  0.51994447    -0.46000
O784        O  0.83229238  0.41138614  0.49867455    -0.52400
C785        C  0.87624572  0.40858984  0.57306954     0.87700
O786        O  0.84258515  0.33398205  0.52738487    -0.54300
O787        O  0.88275076  0.39656642  0.49001163    -0.57500
C788        C  0.81178454  0.03776670  0.46137761     0.89100
C789        C  0.77771915  0.51769641  0.44770564    -0.51200
C790        C  0.74817103  0.49448701  0.46072958     0.12000
C791        C  0.75552008  0.49287963  0.48811492     0.22900
C792        C  0.80126061  0.05667858  0.48066302    -0.51900
C793        C  0.77148518  0.03389936  0.49372337     0.12100
C794        C  0.81609641  0.50886219  0.47597371    -0.51400
C795        C  0.78679556  0.48548897  0.48867462     0.12700
H796        H  0.77672671  0.52239469  0.42827057     0.17200
H797        H  0.73142771  0.47376511  0.49855436     0.02900
H798        H  0.81447356  0.08525843  0.48261802     0.17500
H799        H  0.84022608  0.50693128  0.47456743     0.17300
In800      In  0.97354048  0.09819805  0.41379195     1.36900
C801        C  0.90916503  0.08267905  0.42982388     0.80100
O802        O  0.94938817  0.06098259  0.38153559    -0.58300
O803        O  0.00096712  0.10657642  0.37718193    -0.49200
C804        C  0.00197125  0.16812276  0.41715570     0.72800
O805        O  0.01107948  0.15162398  0.43155806    -0.44100
C806        C  0.99854951  0.06242377  0.43890219     0.77500
O807        O  0.93712032  0.09884353  0.44298035    -0.55900
O808        O  0.96613213  0.05455715  0.43910081    -0.46000
O809        O  0.91393721  0.07402284  0.40867016    -0.52400
C810        C  0.97536036  0.07906042  0.36751778     0.87700
O811        O  0.97986951  0.14931865  0.40067031    -0.54300
O812        O  0.01858993  0.08915671  0.42629494    -0.57500
In813      In  0.57725332  0.40420250  0.41928376     1.36900
C814        C  0.64477593  0.44148262  0.43520823     0.80100
O815        O  0.60292942  0.41812429  0.38214787    -0.58300
O816        O  0.54769804  0.40240537  0.38427305    -0.49200
C817        C  0.55187281  0.33456592  0.42078682     0.72800
O818        O  0.58439987  0.35700643  0.41751512    -0.44100
C819        C  0.54667542  0.43001014  0.44992287     0.77500
O820        O  0.62335640  0.41059266  0.44227510    -0.55900
O821        O  0.55159184  0.43745434  0.42747140    -0.46000
O822        O  0.63156133  0.45400030  0.42054077    -0.52400
C823        C  0.57488918  0.41216757  0.37089638     0.87700
O824        O  0.53153275  0.34732127  0.42296560    -0.54300
O825        O  0.55666258  0.40889877  0.45657269    -0.57500
C826        C  0.01467202  0.20539054  0.41950153    -0.15900
C827        C  0.52430778  0.23136546  0.42304664     0.08100
C828        C  0.53220626  0.26690013  0.42293743     0.10000
C829        C  0.53960346  0.29738322  0.42211803    -0.16800
C830        C  0.68165484  0.46067483  0.44315567    -0.10700
C831        C  0.71235219  0.47594825  0.45045594    -0.12300
C832        C  0.87412874  0.07323064  0.43870445    -0.10700
C833        C  0.84469837  0.06054609  0.44772653    -0.12300
C834        C  0.78705084  0.45657096  0.50052829    -0.10700
C835        C  0.79693843  0.43706776  0.50780112    -0.12300
C836        C  0.71470864  0.18554733  0.53515026    -0.15900
C837        C  0.73549258  0.21676769  0.53289997     0.08100
C838        C  0.76132079  0.25296864  0.53024725     0.10000
C839        C  0.78358517  0.28385396  0.52823166    -0.16800
C840        C  0.73135272  0.05324901  0.51803037    -0.10700
C841        C  0.75161518  0.04547667  0.50845577    -0.12300
C842        C  0.99080903  0.01495052  0.46691145    -0.13900
C843        C  0.01199105  0.04181405  0.45192266    -0.29000
H844        H  0.96347266  0.00917511  0.46989063     0.15200
H845        H  0.53598775  0.04330774  0.44713199     0.15700
C846        C  0.52090994  0.46796610  0.46024140    -0.13900
C847        C  0.53162447  0.44535790  0.46737509    -0.29000
H848        H  0.52165380  0.47351697  0.44077152     0.15200
H849        H  0.53104324  0.43938572  0.48672398     0.15700
C850        C  0.97634241  0.46614057  0.49031028    -0.13900
C851        C  0.94448064  0.44045221  0.48117377    -0.29000
H852        H  0.97848793  0.46959239  0.51008156     0.15200
H853        H  0.94093349  0.43529015  0.46159431     0.15700
C854        C  0.56850025  0.02425778  0.49281638    -0.13900
C855        C  0.53456435  0.01655803  0.49753592    -0.29000
H856        H  0.57437521  0.01436310  0.47622602     0.15200
H857        H  0.53623400  0.50667509  0.51578037     0.15700
C858        C  0.70489650  0.18753788  0.08440661    -0.15900
C859        C  0.73633604  0.21045592  0.08401991     0.08100
C860        C  0.77285498  0.23808168  0.08265406     0.10000
C861        C  0.80417105  0.26102790  0.08110340    -0.16800
C862        C  0.54675745  0.19985079  0.11607576    -0.10700
C863        C  0.55740614  0.18053043  0.10903064    -0.12300
C864        C  0.96588842  0.25187816  0.10803096    -0.10700
C865        C  0.95201228  0.26685696  0.09872863    -0.12300
C866        C  0.97495828  0.06961708  0.34212676    -0.15900
C867        C  0.97224628  0.06240260  0.32050374     0.08100
C868        C  0.96657535  0.05519436  0.29502119     0.10000
C869        C  0.95965338  0.05041305  0.27336558    -0.16800
C870        C  0.97186873  0.16973852  0.16758965    -0.10700
C871        C  0.96081113  0.14102102  0.17646605    -0.12300
C872        C  0.58737022  0.42157899  0.27510271    -0.15900
C873        C  0.58159054  0.42028489  0.29686664     0.08100
C874        C  0.57656482  0.41812201  0.32260988     0.10000
C875        C  0.57430877  0.41568796  0.34468087    -0.16800
C876        C  0.81564853  0.00056200  0.20477661    -0.15900
C877        C  0.79160256  0.48966588  0.19983521     0.08100
C878        C  0.75433594  0.47818895  0.19848336     0.10000
C879        C  0.72237474  0.46765360  0.19794076    -0.16800
C880        C  0.57333043  0.31857856  0.18192729    -0.10700
C881        C  0.55766413  0.28988198  0.17198348    -0.12300
C882        C  0.53736918  0.01219102  0.13651787    -0.13900
C883        C  0.54381851  0.01716510  0.11228017    -0.29000
H884        H  0.54963314  0.03559181  0.14851688     0.15200
H885        H  0.53303778  0.99462627  0.09975883     0.15700
C886        C  0.99422677  0.44794686  0.12179554    -0.13900
C887        C  0.96531143  0.41614852  0.12690574    -0.29000
H888        H  0.00370731  0.45327737  0.10300240     0.15200
H889        H  0.95517499  0.41095786  0.14550439     0.15700
C890        C  0.96276285  0.98842374  0.15886168    -0.13900
C891        C  0.99774192  0.99785155  0.15981784    -0.29000
H892        H  0.94439007  0.96853424  0.14565452     0.15200
H893        H  0.01503343  0.01862710  0.17301865     0.15700
C894        C  0.53914794  0.47276902  0.16547337    -0.13900
C895        C  0.56542270  0.46648346  0.15812193    -0.29000
H896        H  0.53095925  0.46843611  0.18456186     0.15200
H897        H  0.57408388  0.47127145  0.13916391     0.15700
C898        C  0.93627630  0.36411980  0.00670435    -0.15900
C899        C  0.94315004  0.36796500  0.98511761     0.08100
C900        C  0.95036908  0.36755897  0.95986575     0.10000
C901        C  0.95433529  0.36297430  0.93850583    -0.16800
C902        C  0.84797910  0.26655386  0.84816855    -0.10700
C903        C  0.81849210  0.25594334  0.83954134    -0.12300
C904        C  0.56935513  0.10133434  0.00770764    -0.15900
C905        C  0.56278229  0.09954635  0.98601844     0.08100
C906        C  0.55652571  0.09992921  0.96056001     0.10000
C907        C  0.55343311  0.10277547  0.93881983    -0.16800
C908        C  0.98919253  0.25865997  0.86421759    -0.15900
C909        C  0.49120957  0.23521823  0.86317579     0.08100
C910        C  0.49889917  0.20744231  0.86301442     0.10000
C911        C  0.50789960  0.18548089  0.86352710    -0.16800
C912        C  0.66193045  0.19339162  0.84781150    -0.10700
C913        C  0.69192699  0.21332022  0.84075543    -0.12300
C914        C  0.98642954  0.44129415  0.82454804    -0.13900
C915        C  0.99849201  0.41824273  0.82356446    -0.29000
H916        H  0.46321908  0.43777349  0.83963514     0.15200
H917        H  0.01896294  0.42157183  0.81057602     0.15700
C918        C  0.51339428  0.00712343  0.82771637    -0.13900
C919        C  0.52266336  0.03923801  0.81904806    -0.29000
H920        H  0.51275157  0.00408883  0.84753942     0.15200
H921        H  0.52393086  0.04336043  0.79934641     0.15700
C922        C  0.88515243  0.43321081  0.66764057    -0.15900
C923        C  0.88858491  0.43046681  0.64587765     0.08100
C924        C  0.88837527  0.42409856  0.62034398     0.10000
C925        C  0.88478985  0.41726144  0.59863975    -0.16800
C926        C  0.94748577  0.44360212  0.77854313    -0.13900
C927        C  0.96596917  0.46998406  0.79496983    -0.29000
H928        H  0.95622086  0.42459249  0.77505180     0.15200
H929        H  0.95673532  0.48860012  0.79854398     0.15700
C930        C  0.78399849  0.33296972  0.77110886    -0.10700
C931        C  0.76979782  0.30532754  0.78176058    -0.12300
C932        C  0.63303299  0.05273306  0.61306785    -0.15900
C933        C  0.63090054  0.04753415  0.63490835     0.08100
C934        C  0.63128387  0.04301810  0.66061435     0.10000
C935        C  0.63410952  0.04085510  0.68251837    -0.16800
C936        C  0.53776109  0.98450555  0.79518656    -0.13900
C937        C  0.57149396  0.99763319  0.80375430    -0.29000
H938        H  0.53410517  0.98278375  0.77533729     0.15200
H939        H  0.57668232  0.00047602  0.82344655     0.15700
C940        C  0.73139841  0.01079805  0.75637424    -0.15900
C941        C  0.74407202  0.49048231  0.74733277     0.08100
C942        C  0.77233403  0.48281581  0.74548210     0.10000
C943        C  0.79501787  0.47437281  0.74376772    -0.16800
C944        C  0.71407510  0.14721882  0.77892699    -0.10700
C945        C  0.73016875  0.17761297  0.78570989    -0.12300
In946      In  0.65037205  0.53547492  0.75266592     1.36900
C947        C  0.69113724  0.60225911  0.76709336     0.80100
O948        O  0.64419317  0.56115672  0.71917282    -0.58300
O949        O  0.62747136  0.50657014  0.71663277    -0.49200
C950        C  0.69467697  0.50949577  0.74968784     0.72800
O951        O  0.70023060  0.53700633  0.73898018    -0.44100
C952        C  0.59434529  0.50716171  0.78402615     0.77500
O953        O  0.69977540  0.57932198  0.77100765    -0.55900
O954        O  0.59046263  0.50598872  0.76106624    -0.46000
O955        O  0.66100637  0.59095770  0.75683457    -0.52400
C956        C  0.63184079  0.53379324  0.70588285     0.87700
O957        O  0.66568092  0.49413084  0.76159290    -0.54300
O958        O  0.62667646  0.52142353  0.79093222    -0.57500
In959      In  0.85779817  0.93004915  0.75093529     1.36900
C960        C  0.81362038  0.86293203  0.76110110     0.80100
O961        O  0.85585609  0.90757317  0.71359510    -0.58300
O962        O  0.88836103  0.96318841  0.71831646    -0.49200
C963        C  0.82250836  0.96503869  0.75421358     0.72800
O964        O  0.85288798  0.97650213  0.76427885    -0.44100
C965        C  0.91064375  0.94719164  0.78396604     0.77500
O966        O  0.80447638  0.88585267  0.76331088    -0.55900
O967        O  0.91519638  0.94776071  0.76108684    -0.46000
O968        O  0.84531444  0.87418809  0.75394852    -0.52400
C969        C  0.87641164  0.93686055  0.70394746     0.87700
O970        O  0.81095615  0.93667733  0.74221062    -0.54300
O971        O  0.87919294  0.93897452  0.79007441    -0.57500
C972        C  0.50519141  0.97525908  0.81131611     0.00100
In973      In  0.56826032  0.62796542  0.87010846     1.36900
C974        C  0.63456851  0.66737197  0.85364910     0.79800
O975        O  0.59789821  0.62873537  0.90413420    -0.58300
O976        O  0.54099163  0.60444829  0.90606303    -0.49200
C977        C  0.53769145  0.66775751  0.87136890     0.72800
O978        O  0.56659524  0.67607194  0.88240286    -0.44100
C979        C  0.53942404  0.57187681  0.83932552     0.77500
O980        O  0.61034628  0.67480994  0.84995079    -0.55900
O981        O  0.53951026  0.56898621  0.86229799    -0.46000
O982        O  0.62491925  0.63937047  0.86529018    -0.52400
C983        C  0.57018686  0.61340147  0.91713598     0.87700
O984        O  0.52327172  0.63828571  0.86030503    -0.54300
O985        O  0.55335516  0.60321545  0.83217408    -0.57500
In986      In  0.95418736  0.82492389  0.86975385     1.36900
C987        C  0.88752955  0.78220649  0.85397065     0.80100
O988        O  0.92677291  0.82515717  0.90460606    -0.58300
O989        O  0.98396465  0.85414577  0.90444329    -0.49200
C990        C  0.98600117  0.78645764  0.87186922     0.72800
O991        O  0.95730109  0.77840756  0.88283246    -0.44100
C992        C  0.97753881  0.87868335  0.83777695     0.77500
O993        O  0.89625658  0.80962118  0.86661119    -0.55900
O994        O  0.97799863  0.88279279  0.86071302    -0.46000
O995        O  0.91273369  0.77652474  0.84926700    -0.52400
C996        C  0.95545519  0.84417861  0.91646791     0.87700
O997        O  0.99995857  0.81538591  0.86065176    -0.54300
O998        O  0.96641633  0.84725425  0.83112175    -0.57500
C999        C  0.76777825  0.76659829  0.78982239     0.89100
C1000       C  0.75679457  0.73300028  0.77457825    -0.51200
C1001       C  0.75080431  0.70497692  0.78865300     0.12000
C1002       C  0.75689266  0.71320391  0.81626462     0.22900
C1003       C  0.73761927  0.75584532  0.80856348    -0.51900
C1004       C  0.73178601  0.72753237  0.82220685     0.12100
C1005       C  0.80064397  0.77322343  0.80464416    -0.51400
C1006       C  0.79504964  0.74542722  0.81845733     0.12700
H1007       H  0.75186867  0.73093409  0.75489954     0.17200
H1008       H  0.75213435  0.69031463  0.82757609     0.02900
H1009       H  0.72081470  0.76770622  0.80965874     0.17500
H1010       H  0.82621868  0.79799291  0.80441731     0.17300
C1011       C  0.51228306  0.97701246  0.14921865     0.00100
In1012     In  0.60614688  0.92606427  0.21264994     1.36900
C1013       C  0.57777788  0.85794771  0.20008331     0.80100
O1014       O  0.61572838  0.96148465  0.24574379    -0.58300
O1015       O  0.57901824  0.90639516  0.24889079    -0.49200
C1016       C  0.67735946  0.95570669  0.21179830     0.72800
O1017       O  0.65765007  0.92964495  0.22500882    -0.44100
C1018       C  0.57724117  0.95073600  0.18008220     0.77500
O1019       O  0.56017332  0.86940600  0.21135825    -0.55900
O1020       O  0.57280865  0.95113477  0.20289010    -0.46000
O1021       O  0.60972341  0.88096981  0.19544516    -0.52400
C1022       C  0.59450691  0.93636039  0.25921083     0.87700
O1023       O  0.66097859  0.96756111  0.19959765    -0.54300
O1024       O  0.59663635  0.93813555  0.17397426    -0.57500
In1025     In  0.93322778  0.54305085  0.20583948     1.36900
C1026       C  0.95154268  0.60322655  0.18348033     0.80100
O1027       O  0.96190302  0.56848392  0.24102667    -0.58300
O1028       O  0.92222385  0.51396665  0.24173420    -0.49200
C1029       C  0.86182982  0.51439778  0.20318891     0.72800
O1030       O  0.88273494  0.54559737  0.21045862    -0.44100
C1031       C  0.97432433  0.52048627  0.18442487     0.77500
O1032       O  0.94030646  0.57453039  0.17178340    -0.55900
O1033       O  0.98626058  0.54601105  0.19940872    -0.46000
O1034       O  0.95446575  0.60139993  0.20629677    -0.52400
C1035       C  0.94502378  0.54102266  0.25354037     0.87700
O1036       O  0.87712553  0.49722050  0.19756658    -0.54300
O1037       O  0.94096237  0.50598513  0.18023887    -0.57500
C1038       C  0.97984487  0.73735300  0.12095263     0.89100
C1039       C  0.50586855  0.73665367  0.11580088    -0.51200
C1040       C  0.52625253  0.72898973  0.13103691     0.12000
C1041       C  0.51907797  0.73086121  0.15850057     0.22900
C1042       C  0.95845406  0.70324309  0.13566197    -0.51900
C1043       C  0.97986974  0.69657175  0.15057157     0.12100
C1044       C  0.50244653  0.77431735  0.14751798    -0.51400
C1045       C  0.52311854  0.76754602  0.16265421     0.12700
H1046       H  0.50626807  0.73455370  0.09592952     0.17200
H1047       H  0.53601870  0.72512291  0.17082687     0.02900
H1048       H  0.92968226  0.68520947  0.13346001     0.17500
H1049       H  0.50241329  0.79909201  0.14822062     0.17300
In1050     In  0.91430262  0.83587549  0.08347109     1.36900
C1051       C  0.93473326  0.78903092  0.09199749     0.80100
O1052       O  0.94921615  0.84356824  0.05083240    -0.58300
O1053       O  0.90630053  0.85371139  0.04636917    -0.49200
C1054       C  0.84288366  0.79841972  0.08869435     0.72800
O1055       O  0.86399598  0.79069007  0.09906567    -0.44100
C1056       C  0.94664186  0.89257176  0.11425963     0.77500
O1057       O  0.94655351  0.81739880  0.10420602    -0.55900
O1058       O  0.95673623  0.89301984  0.09254350    -0.46000
O1059       O  0.91284191  0.78464265  0.07510969    -0.52400
C1060       C  0.93185548  0.85194572  0.03655544     0.87700
O1061       O  0.85808493  0.82638382  0.07637656    -0.54300
O1062       O  0.91927905  0.86381382  0.11991578    -0.57500
In1063     In  0.59581835  0.63243248  0.08608962     1.36900
C1064       C  0.57063332  0.67179391  0.10531026     0.80100
O1065       O  0.57018904  0.62692701  0.04928097    -0.58300
O1066       O  0.61042287  0.61279769  0.05180691    -0.49200
C1067       C  0.66641876  0.67890023  0.08962657     0.72800
O1068       O  0.65296559  0.64728935  0.09638953    -0.44100
C1069       C  0.55695185  0.56914028  0.10768058     0.77500
O1070       O  0.58406325  0.65779138  0.11845728    -0.55900
O1071       O  0.54450825  0.58093534  0.09193173    -0.46000
O1072       O  0.56938167  0.66505319  0.08273076    -0.52400
C1073       C  0.58856948  0.61617870  0.03835319     0.87700
O1074       O  0.64408353  0.68657594  0.08124952    -0.54300
O1075       O  0.58974826  0.58981111  0.11282554    -0.57500
C1076       C  0.50149408  0.99122176  0.48184651     0.00100
In1077     In  0.65937639  0.58162462  0.54020945     1.36900
C1078       C  0.70627745  0.56186322  0.52762617     0.80100
O1079       O  0.65595008  0.55125322  0.57397616    -0.58300
O1080       O  0.63099599  0.58236586  0.57497482    -0.49200
C1081       C  0.69448419  0.65214307  0.53933127     0.72800
O1082       O  0.70100733  0.63504999  0.55482423    -0.44100
C1083       C  0.60513306  0.55030042  0.50755057     0.77500
O1084       O  0.71439108  0.59371007  0.52851895    -0.55900
O1085       O  0.60013404  0.55074353  0.53030358    -0.46000
O1086       O  0.67420301  0.53991110  0.53306895    -0.52400
C1087       C  0.63851574  0.56192691  0.58623193     0.87700
O1088       O  0.66873512  0.63343745  0.52485099    -0.54300
O1089       O  0.63770265  0.56659207  0.50147124    -0.57500
In1090     In  0.85385515  0.89658487  0.53713010     1.36900
C1091       C  0.81723602  0.92649118  0.52154393     0.80100
O1092       O  0.85497975  0.92460854  0.57195302    -0.58300
O1093       O  0.88043769  0.89391548  0.57220158    -0.49200
C1094       C  0.81072722  0.82654518  0.53768252     0.72800
O1095       O  0.80265811  0.84762987  0.54752654    -0.44100
C1096       C  0.90989120  0.92398441  0.50623343     0.77500
O1097       O  0.84754094  0.94376471  0.53190338    -0.55900
O1098       O  0.91348890  0.92748727  0.52919948    -0.46000
O1099       O  0.80562984  0.89394456  0.51878889    -0.52400
C1100       C  0.87232038  0.91377541  0.58397248     0.87700
O1101       O  0.84146832  0.84095628  0.52806499    -0.54300
O1102       O  0.87779047  0.90484517  0.49906840    -0.57500
C1103       C  0.81188391  0.53753464  0.46365266     0.89100
C1104       C  0.77766538  0.01619613  0.44555473    -0.51200
C1105       C  0.74813640  0.99392808  0.45903164     0.12000
C1106       C  0.75558047  0.99477906  0.48666605     0.22900
C1107       C  0.80186975  0.55501372  0.48428891    -0.51900
C1108       C  0.77192853  0.53147795  0.49688207     0.12100
C1109       C  0.81641245  0.01056742  0.47552568    -0.51400
C1110       C  0.78723250  0.98811643  0.48870262     0.12700
H1111       H  0.77656729  0.01953694  0.42590399     0.17200
H1112       H  0.73157043  0.97643587  0.49749268     0.02900
H1113       H  0.81513995  0.58343969  0.48717027     0.17500
H1114       H  0.84090897  0.00919134  0.47522386     0.17300
In1115     In  0.97450292  0.60144481  0.41754453     1.36900
C1116       C  0.90954736  0.58518778  0.43291558     0.80100
O1117       O  0.94433225  0.56813619  0.38498726    -0.58300
O1118       O  0.00145256  0.59852377  0.38280065    -0.49200
C1119       C  0.00494071  0.67165285  0.42019567     0.72800
O1120       O  0.99484337  0.65258694  0.43891875    -0.44100
C1121       C  0.00116156  0.56807679  0.44350657     0.77500
O1122       O  0.93172065  0.58211811  0.44617976    -0.55900
O1123       O  0.97127328  0.55228503  0.43248693    -0.46000
O1124       O  0.92038959  0.59667345  0.41173817    -0.52400
C1125       C  0.97199076  0.57725821  0.37232554     0.87700
O1126       O  0.00212046  0.65538942  0.40041401    -0.54300
O1127       O  0.01819204  0.60115593  0.44076245    -0.57500
In1128     In  0.57278492  0.90958798  0.42643599     1.36900
C1129       C  0.64277720  0.94321500  0.43739914     0.80100
O1130       O  0.59769952  0.94619717  0.39461899    -0.58300
O1131       O  0.54766619  0.89893380  0.38869076    -0.49200
C1132       C  0.54993832  0.84032390  0.42937782     0.72800
O1133       O  0.57741659  0.86376119  0.44049562    -0.44100
C1134       C  0.53635890  0.93131101  0.45502843     0.77500
O1135       O  0.62083437  0.94893739  0.44895867    -0.55900
O1136       O  0.54340743  0.93973677  0.43289746    -0.46000
O1137       O  0.62910961  0.92059951  0.42031606    -0.52400
C1138       C  0.57317773  0.92659600  0.37966143     0.87700
O1139       O  0.53281290  0.85181242  0.41769963    -0.54300
O1140       O  0.54658228  0.91065047  0.46234416    -0.57500
C1141       C  0.01632589  0.70867404  0.42103120    -0.15900
C1142       C  0.52640784  0.73791743  0.42849708     0.08100
C1143       C  0.53341061  0.77324299  0.42904894     0.10000
C1144       C  0.53988127  0.80352136  0.42939566    -0.16800
C1145       C  0.68055075  0.96088230  0.44331363    -0.10700
C1146       C  0.71190594  0.97552442  0.44925060    -0.12300
C1147       C  0.87409240  0.57488232  0.44123477    -0.10700
C1148       C  0.84463631  0.56125979  0.45024330    -0.12300
C1149       C  0.78831043  0.96139266  0.50305650    -0.10700
C1150       C  0.79830516  0.94323053  0.51264367    -0.12300
C1151       C  0.71620485  0.69001489  0.53776794    -0.15900
C1152       C  0.73733211  0.72141895  0.53698911     0.08100
C1153       C  0.76370309  0.75784434  0.53679415     0.10000
C1154       C  0.78603077  0.78897659  0.53708405    -0.16800
C1155       C  0.73147902  0.55141913  0.52014700    -0.10700
C1156       C  0.75152718  0.54272131  0.51137392    -0.12300
C1157       C  0.99763155  0.51382136  0.45957055    -0.13900
C1158       C  0.01476612  0.54952888  0.45883893    -0.29000
H1159       H  0.97405769  0.49902939  0.44786326     0.15200
H1160       H  0.53757871  0.56263343  0.47722401     0.15700
C1161       C  0.50966443  0.96895010  0.46390357    -0.13900
C1162       C  0.51982203  0.94607528  0.47159990    -0.29000
H1163       H  0.50960301  0.97350595  0.44434459     0.15200
H1164       H  0.51941766  0.94092495  0.49108468     0.15700
C1165       C  0.97359624  0.96661874  0.49690077    -0.13900
C1166       C  0.94021877  0.94253629  0.48895593    -0.29000
H1167       H  0.97872110  0.96933152  0.51653967     0.15200
H1168       H  0.93432146  0.93921898  0.46945768     0.15700
C1169       C  0.57565907  0.53181760  0.48933641    -0.13900
C1170       C  0.54146176  0.50993515  0.49626744    -0.29000
H1171       H  0.58226864  0.53511241  0.47003721     0.15200
H1172       H  0.53007019  0.02873878  0.51355850     0.15700
C1173       C  0.70435016  0.70458103  0.09106922    -0.15900
C1174       C  0.73579161  0.72737798  0.09135669     0.08100
C1175       C  0.77261326  0.75419719  0.09094212     0.10000
C1176       C  0.80438733  0.77584104  0.09012335    -0.16800
C1177       C  0.54515371  0.71160842  0.12225849    -0.10700
C1178       C  0.55769305  0.69395972  0.11506035    -0.12300
C1179       C  0.95832960  0.74715016  0.10564535    -0.10700
C1180       C  0.94544710  0.76370440  0.09736613    -0.12300
C1181       C  0.96951217  0.56489888  0.34749438    -0.15900
C1182       C  0.96459696  0.55517686  0.32633021     0.08100
C1183       C  0.95722864  0.54597852  0.30120711     0.10000
C1184       C  0.95104530  0.54137432  0.27947692    -0.16800
C1185       C  0.96748007  0.66331065  0.16251986    -0.10700
C1186       C  0.95983302  0.63563487  0.17186925    -0.12300
C1187       C  0.58890363  0.94097708  0.28467536    -0.15900
C1188       C  0.58404798  0.94161016  0.30644048     0.08100
C1189       C  0.57873368  0.93896901  0.33211309     0.10000
C1190       C  0.57520965  0.93434119  0.35396019    -0.16800
C1191       C  0.82346384  0.49998002  0.20128729    -0.15900
C1192       C  0.78410332  0.99103240  0.20644097     0.08100
C1193       C  0.74722582  0.98013760  0.20854429     0.10000
C1194       C  0.71553939  0.96996854  0.21022817    -0.16800
C1195       C  0.56192086  0.82195904  0.19148039    -0.10700
C1196       C  0.54610617  0.79418375  0.18037090    -0.12300
C1197       C  0.54555147  0.51874072  0.13494230    -0.13900
C1198       C  0.53384874  0.53414739  0.11895614    -0.29000
H1199       H  0.57393651  0.53203260  0.13972078     0.15200
H1200       H  0.50544691  0.52065659  0.11423943     0.15700
C1201       C  0.99302670  0.95427716  0.12541822    -0.13900
C1202       C  0.96588652  0.92228825  0.13215213    -0.29000
H1203       H  0.99945758  0.95853512  0.10617899     0.15200
H1204       H  0.95869932  0.91740451  0.15122085     0.15700
C1205       C  0.99836191  0.50965188  0.17278961    -0.13900
C1206       C  0.98739022  0.48411355  0.15536355    -0.29000
H1207       H  0.02661877  0.52441385  0.17792865     0.15200
H1208       H  0.95918230  0.46983326  0.15001997     0.15700
C1209       C  0.53494072  0.97059611  0.16800755    -0.13900
C1210       C  0.56042765  0.96283641  0.16180638    -0.29000
H1211       H  0.52893234  0.97014268  0.18754126     0.15200
H1212       H  0.56696857  0.96256605  0.14244617     0.15700
C1213       C  0.93980578  0.85734685  0.01076926    -0.15900
C1214       C  0.94594680  0.85862471  0.98905412     0.08100
C1215       C  0.95193655  0.85695162  0.96363438     0.10000
C1216       C  0.95514147  0.85281983  0.94201466    -0.16800
C1217       C  0.85191112  0.76043005  0.84439454    -0.10700
C1218       C  0.82350453  0.74844887  0.83385824    -0.12300
C1219       C  0.58518491  0.60942276  0.01233619    -0.15900
C1220       C  0.58119880  0.60652631  0.99033994     0.08100
C1221       C  0.57600838  0.60593241  0.96466562     0.10000
C1222       C  0.57226478  0.60778691  0.94288107    -0.16800
C1223       C  0.00021562  0.76305744  0.87140194    -0.15900
C1224       C  0.50542932  0.73999343  0.86937260     0.08100
C1225       C  0.51448087  0.71315372  0.87016522     0.10000
C1226       C  0.52341416  0.69113362  0.87080205    -0.16800
C1227       C  0.67044380  0.68925102  0.84502630    -0.10700
C1228       C  0.69951678  0.70763380  0.83610066    -0.12300
C1229       C  0.99685003  0.94057181  0.82802053    -0.13900
C1230       C  0.98800201  0.90792751  0.82013053    -0.29000
H1231       H  0.49724315  0.94711471  0.84735620     0.15200
H1232       H  0.98677375  0.90227451  0.80054997     0.15700
C1233       C  0.51204402  0.50814607  0.82956144    -0.13900
C1234       C  0.52495103  0.54150044  0.82195723    -0.29000
H1235       H  0.51160688  0.50367105  0.84919064     0.15200
H1236       H  0.52601450  0.54672207  0.80244216     0.15700
C1237       C  0.88452453  0.93941936  0.67828082    -0.15900
C1238       C  0.88713675  0.93712550  0.65641747     0.08100
C1239       C  0.88581370  0.93054379  0.63092262     0.10000
C1240       C  0.88133412  0.92309262  0.60935971    -0.16800
C1241       C  0.93964858  0.95511784  0.80210320    -0.13900
C1242       C  0.97227874  0.96201114  0.79459710    -0.29000
H1243       H  0.93431749  0.95537780  0.82155630     0.15200
H1244       H  0.97593299  0.96134410  0.77489119     0.15700
C1245       C  0.79037526  0.82690078  0.76740638    -0.10700
C1246       C  0.77581425  0.79769641  0.77569147    -0.12300
C1247       C  0.62912159  0.55220009  0.61142393    -0.15900
C1248       C  0.62456849  0.54485993  0.63291031     0.08100
C1249       C  0.62300634  0.53802746  0.65833597     0.10000
C1250       C  0.62498904  0.53442208  0.68011037    -0.16800
C1251       C  0.52992277  0.48327373  0.79429806    -0.13900
C1252       C  0.56403568  0.49437709  0.80160430    -0.29000
H1253       H  0.52459709  0.48220233  0.77469710     0.15200
H1254       H  0.57032174  0.49672946  0.82110139     0.15700
C1255       C  0.72038418  0.49760744  0.74867340    -0.15900
C1256       C  0.75439194  0.00282959  0.75699776     0.08100
C1257       C  0.78086192  0.99285747  0.75716490     0.10000
C1258       C  0.80167128  0.98211685  0.75641991    -0.16800
C1259       C  0.71416709  0.63868563  0.77355188    -0.10700
C1260       C  0.73255456  0.66926688  0.77945921    -0.12300
loop_ 
_geom_bond_atom_site_label_1 
_geom_bond_atom_site_label_2 
_geom_bond_distance 
_geom_bond_site_symmetry_2 
_ccdc_geom_bond_type 
In1           O3   2.241       .  S
In1           O4   2.268       .  S
In1          O12   2.255   1_545  S
In1           O6   2.240       .  S
In1           O8   2.244       .  S
In1           O9   2.263       .  S
In1          O10   2.244       .  S
In1          O13   2.270       .  S
C2            O8   1.258       .  A
C2           O10   1.260       .  A
C2          C314   1.432       .  S
O3           C11   1.257       .  A
O4           C11   1.262       .  A
C5           O12   1.259   1_545  A
C5            O6   1.255       .  A
C5          C310   1.431       .  S
C7            O9   1.261       .  A
C7           O13   1.257       .  A
C7          C307   1.486   1_545  S
C11         C305   1.440       .  S
In14         O16   2.237       .  S
In14         O17   2.267       .  S
In14         O25   2.236       .  S
In14         O19   2.271       .  S
In14         O21   2.246       .  S
In14         O22   2.256       .  S
In14         O23   2.238       .  S
In14         O26   2.282       .  S
C15          O21   1.260       .  A
C15          O23   1.257       .  A
C15         C300   1.430       .  S
O16          C24   1.256       .  A
O17          C24   1.261       .  A
C18          O25   1.256       .  A
C18          O19   1.262       .  A
C18         C313   1.439       .  S
C20          O22   1.258       .  A
C20          O26   1.262       .  A
C20         C296   1.484       .  S
C24         C292   1.437       .  S
C27         C914   1.535       .  S
C27         C603   1.531   1_655  S
C27         C927   1.536       .  S
C27         C621   1.539   1_655  S
In28         O30   2.248       .  S
In28         O31   2.259       .  S
In28         O39   2.239       .  S
In28         O33   2.281       .  S
In28         O35   2.246       .  S
In28         O36   2.261       .  S
In28         O37   2.244       .  S
In28         O40   2.270       .  S
C29          O35   1.258       .  A
C29          O37   1.260       .  A
C29         C282   1.432       .  S
O30          C38   1.259       .  A
O31          C38   1.261       .  A
C32          O39   1.253       .  A
C32          O33   1.262       .  A
C32         C281   1.440       .  S
C34          O36   1.260       .  A
C34          O40   1.258       .  A
C34         C289   1.484       .  S
C38         C277   1.439       .  S
In41         O43   2.249       .  S
In41         O44   2.262       .  S
In41         O52   2.257       .  S
In41         O46   2.254       .  S
In41         O48   2.256       .  S
In41         O49   2.259       .  S
In41         O50   2.236       .  S
In41         O53   2.276       .  S
C42          O48   1.258       .  A
C42          O50   1.259       .  A
C42         C272   1.432       .  S
O43          C51   1.258       .  A
O44          C51   1.261       .  A
C45          O52   1.259       .  A
C45          O46   1.257       .  A
C45         C278   1.438       .  S
C47          O49   1.260       .  A
C47          O53   1.260       .  A
C47         C285   1.486       .  S
C51         C271   1.440       .  S
C54          C55   1.537       .  S
C54          C60   1.523       .  S
C54          C58   1.533       .  S
C54         C301   1.461       .  S
C55          H62   1.087       .  S
C55          C56   1.367       .  D
C56          C57   1.534       .  S
C56         C315   1.438       .  S
C57          C61   1.537       .  S
C57          C59   1.537       .  S
C57          H63   1.112       .  S
C58          H64   1.086       .  S
C58          C59   1.367       .  D
C59         C283   1.438       .  S
C60          H65   1.088       .  S
C60          C61   1.355       .  D
C61         C273   1.437       .  S
C66         C264   1.539       .  S
C66         C567   1.538       .  S
C66         C886   1.538   1_455  S
C66        C1206   1.539   1_455  S
In67         O69   2.246       .  S
In67         O70   2.260       .  S
In67         O78   2.283       .  S
In67         O72   2.254       .  S
In67         O74   2.254       .  S
In67         O75   2.288       .  S
In67         O76   2.243       .  S
In67         O79   2.272       .  S
C68          O74   1.256       .  A
C68          O76   1.259       .  A
C68         C250   1.432       .  S
O69          C77   1.258       .  A
O70          C77   1.262       .  A
C71          O78   1.262       .  A
C71          O72   1.255       .  A
C71         C249   1.447       .  S
C73          O75   1.260       .  A
C73          O79   1.260       .  A
C73         C265   1.490       .  S
C77         C242   1.440       .  S
In80         O82   2.247       .  S
In80         O83   2.260       .  S
In80         O91   2.264   1_545  S
In80         O85   2.238       .  S
In80         O87   2.246       .  S
In80         O88   2.258       .  S
In80         O89   2.249       .  S
In80         O92   2.262       .  S
C81          O87   1.258       .  A
C81          O89   1.260       .  A
C81         C241   1.433       .  S
O82          C90   1.257       .  A
O83          C90   1.260       .  A
C84          O91   1.261   1_545  A
C84          O85   1.257       .  A
C84         C246   1.437   1_545  S
C86          O88   1.260       .  A
C86          O92   1.258       .  A
C86         C260   1.480   1_545  S
C90         C239   1.438       .  S
C93          C97   1.535       .  S
C93         C724   1.538       .  S
C93         C729   1.518       .  S
C93         C234   1.464       .  S
C94         C723   1.535   1_455  S
C94         H101   1.087       .  S
C94          C95   1.367       .  D
C95          C96   1.536       .  S
C95         C232   1.440       .  S
C96         C100   1.539       .  S
C96         C728   1.539   1_455  S
C96         H102   1.112       .  S
C97         H103   1.087       .  S
C97          C98   1.367       .  D
C98         C726   1.538       .  S
C98         C240   1.439       .  S
C99         C723   1.520   1_455  S
C99         H104   1.088       .  S
C99         C100   1.355       .  D
C100        C251   1.435       .  S
In105       O107   2.239       .  S
In105       O108   2.260       .  S
In105       O116   2.276       .  S
In105       O110   2.240       .  S
In105       O112   2.252       .  S
In105       O113   2.287       .  S
In105       O114   2.249       .  S
In105       O117   2.267       .  S
C106        O112   1.257       .  A
C106        O114   1.260       .  A
C106        C235   1.434       .  S
O107        C115   1.259       .  A
O108        C115   1.263       .  A
C109        O116   1.262       .  A
C109        O110   1.254       .  A
C109        C231   1.439       .  S
C111        O113   1.258       .  A
C111        O117   1.257       .  A
C111        C257   1.484       .  S
C115        C268   1.439       .  S
In118       O120   2.227       .  S
In118       O121   2.261       .  S
In118       O129   2.250       .  S
In118       O123   2.270       .  S
In118       O125   2.260       .  S
In118       O126   2.236       .  S
In118       O127   2.245       .  S
In118       O130   2.289       .  S
C119        O125   1.258       .  A
C119        O127   1.255       .  A
C119        C233   1.434       .  S
O120        C128   1.259       .  A
O121        C128   1.265       .  A
C122        O129   1.255       .  A
C122        O123   1.259       .  A
C122        C228   1.439       .  S
C124        O126   1.257       .  A
C124        O130   1.263       .  A
C124        C253   1.478       .  S
C128        C274   1.438       .  S
C131        C216   1.531       .  S
C131       C1157   1.536   1_455  S
C131        C850   1.535   1_455  S
C131        C540   1.539       .  S
In132       O134   2.244       .  S
In132       O135   2.266       .  S
In132       O143   2.261       .  S
In132       O137   2.243       .  S
In132       O139   2.240       .  S
In132       O140   2.278       .  S
In132       O141   2.250       .  S
In132       O144   2.248       .  S
C133        O139   1.257       .  A
C133        O141   1.261       .  A
C133        C210   1.431       .  S
O134        C142   1.257       .  A
O135        C142   1.261       .  A
C136        O143   1.260       .  A
C136        O137   1.257       .  A
C136        C206   1.436       .  S
C138        O140   1.262       .  A
C138        O144   1.256       .  A
C138        C224   1.478       .  S
C142        C302   1.440       .  S
In145       O147   2.244       .  S
In145       O148   2.244       .  S
In145       O156   2.267       .  S
In145       O150   2.240       .  S
In145       O152   2.249       .  S
In145       O153   2.265       .  S
In145       O154   2.245       .  S
In145       O157   2.273       .  S
C146        O152   1.256       .  A
C146        O154   1.258       .  A
C146        C205   1.430       .  S
O147        C155   1.262       .  A
O148        C155   1.262       .  A
C149        O156   1.260       .  A
C149        O150   1.254       .  A
C149        C209   1.435       .  S
C151        O153   1.259       .  A
C151        O157   1.258       .  A
C151        C221   1.485       .  S
C155        C295   1.437       .  S
C158        C162   1.538       .  S
C158        C474   1.538       .  S
C158        C479   1.524       .  S
C158        C203   1.468       .  S
C159        C473   1.536       .  S
C159        H166   1.087       .  S
C159        C160   1.366       .  D
C160        C161   1.533       .  S
C160        C201   1.435       .  S
C161        C165   1.534       .  S
C161        C478   1.535       .  S
C161        H167   1.112       .  S
C162        H168   1.087       .  S
C162        C163   1.369       .  D
C163        C476   1.534   1_545  S
C163        C211   1.438       .  S
C164        C473   1.523       .  S
C164        H169   1.087       .  S
C164        C165   1.355       .  D
C165        C204   1.434       .  S
In170       O172   2.249       .  S
In170       O173   2.251       .  S
In170       O181   2.244       .  S
In170       O175   2.273       .  S
In170       O177   2.251       .  S
In170       O178   2.255       .  S
In170       O179   2.258       .  S
In170       O182   2.279       .  S
C171        O177   1.259       .  A
C171        O179   1.258       .  A
C171        C202   1.437       .  S
O172        C180   1.260       .  A
O173        C180   1.261       .  A
C174        O181   1.256       .  A
C174        O175   1.260       .  A
C174        C196   1.440       .  S
C176        O178   1.259       .  A
C176        O182   1.261       .  A
C176        C213   1.485       .  S
C180        C236   1.439       .  S
In183       O185   2.247       .  S
In183       O186   2.265       .  S
In183       O194   2.266       .  S
In183       O188   2.246       .  S
In183       O190   2.240       .  S
In183       O191   2.270       .  S
In183       O192   2.246       .  S
In183       O195   2.261       .  S
C184        O190   1.257       .  A
C184        O192   1.259       .  A
C184        C200   1.429       .  S
O185        C193   1.256       .  A
O186        C193   1.261       .  A
C187        O194   1.261       .  A
C187        O188   1.257       .  A
C187        C199   1.441       .  S
C189        O191   1.261       .  A
C189        O195   1.258       .  A
C189        C217   1.483       .  S
C193        C245   1.440       .  S
C196        C827   1.209       .  T
C197        C826   1.209       .  T
C197        C198   1.418       .  S
C198        C199   1.209       .  T
C200        C201   1.202       .  T
C202        C203   1.207       .  T
C204        C205   1.202       .  T
C206        C207   1.206       .  T
C207        C208   1.413       .  S
C208        C209   1.206       .  T
C210        C211   1.203       .  T
C212       C1076   1.532   1_545  S
C212        H214   1.088       .  S
C212        C213   1.350       .  D
C213        H845   1.087       .  S
H215        C843   1.083       .  S
C216        H218   1.088       .  S
C216        C217   1.346       .  D
C217        H219   1.087       .  S
C220        C761   1.537       .  S
C220        H222   1.084       .  S
C220        C221   1.350       .  D
C221        H223   1.083       .  S
C224        H226   1.084       .  S
C224        C225   1.349       .  D
C225        C446   1.539   1_545  S
C225        H542   1.087       .  S
H227        C540   1.084       .  S
C228        C229   1.208       .  T
C229        C230   1.416       .  S
C230        C231   1.208       .  T
C232        C233   1.205       .  T
C234        C235   1.205       .  T
C236        C237   1.208       .  T
C237        C238   1.415       .  S
C238        C239   1.207       .  T
C240        C241   1.205       .  T
C242        C243   1.209       .  T
C243        C244   1.417       .  S
C244        C245   1.209       .  T
C246        C562   1.207       .  T
C247        C561   1.213       .  T
C247        C248   1.424       .  S
C248        C249   1.213       .  T
C250        C251   1.203       .  T
C252        C381   1.533   1_545  S
C252        H254   1.095       .  S
C252        C253   1.349       .  D
C253        H255   1.095       .  S
C256        C696   1.537       .  S
C256        H258   1.087       .  S
C256        C257   1.351       .  D
C257        H259   1.086       .  S
C260        H262   1.080   1_565  S
C260        C261   1.349       .  D
C261       C1011   1.536       .  S
C261        H263   1.083       .  S
C264        H266   1.087       .  S
C264        C265   1.353       .  D
C265        H267   1.086       .  S
C268        C269   1.208   1_554  T
C269        C270   1.417       .  S
C270        C271   1.209       .  T
C272        C273   1.204       .  T
C274        C275   1.207   1_554  T
C275        C276   1.415       .  S
C276        C277   1.208       .  T
C278        C909   1.207       .  T
C279        C908   1.209       .  T
C279        C280   1.418   1_655  S
C280        C281   1.209       .  T
C282        C283   1.203       .  T
C284        C657   1.535       .  S
C284        H916   1.088       .  S
C284        C285   1.350       .  D
C285        H287   1.083       .  S
H286        C914   1.089       .  S
C288        C342   1.535   1_545  S
C288        H290   1.089       .  S
C288        C289   1.345       .  D
C289        H291   1.087       .  S
C292        C293   1.207       .  T
C293        C294   1.414       .  S
C294        C295   1.207       .  T
C296        H298   1.090       .  S
C296        C297   1.349       .  D
C297        C657   1.535       .  S
C297        H299   1.090       .  S
C300        C301   1.202       .  T
C302        C303   1.209       .  T
C303        C304   1.417       .  S
C304        C305   1.209       .  T
C306        C342   1.536       .  S
C306        H308   1.089       .  S
C306        C307   1.345       .  D
C307        H309   1.088   1_565  S
C310        C626   1.203   1_545  T
C311        C625   1.208       .  T
C311        C312   1.416       .  S
C312        C313   1.208       .  T
C314        C315   1.204       .  T
In316       O318   2.236       .  S
In316       O319   2.270       .  S
In316       O327   2.271       .  S
In316       O321   2.235       .  S
In316       O323   2.252       .  S
In316       O324   2.275       .  S
In316       O325   2.249       .  S
In316       O328   2.274       .  S
C317        O323   1.258       .  A
C317        O325   1.258       .  A
C317        C629   1.435       .  S
O318        C326   1.256       .  A
O319        C326   1.262       .  A
C320        O327   1.264       .  A
C320        O321   1.257       .  A
C320        C625   1.439       .  S
C322        O324   1.259       .  A
C322        O328   1.258       .  A
C322        C622   1.486       .  S
C326        C620   1.438       .  S
In329       O331   2.246       .  S
In329       O332   2.251       .  S
In329       O340   2.234       .  S
In329       O334   2.254       .  S
In329       O336   2.228       .  S
In329       O337   2.248       .  S
In329       O338   2.252       .  S
In329       O341   2.270       .  S
C330        O336   1.260       .  A
C330        O338   1.259       .  A
C330        C615   1.429       .  S
O331        C339   1.258       .  A
O332        C339   1.259       .  A
C333        O340   1.255       .  A
C333        O334   1.259       .  A
C333        C628   1.430       .  S
C335        O337   1.260       .  A
C335        O341   1.258       .  A
C335        C611   1.480       .  S
C339        C607   1.435       .  S
C342       C1229   1.536   1_455  S
C342       C1242   1.534   1_455  S
In343       O345   2.237       .  S
In343       O346   2.258       .  S
In343       O354   2.269       .  S
In343       O348   2.238       .  S
In343       O350   2.236       .  S
In343       O351   2.257       .  S
In343       O352   2.249       .  S
In343       O355   2.263       .  S
C344        O350   1.256       .  A
C344        O352   1.259       .  A
C344        C597   1.429       .  S
O345        C353   1.258       .  A
O346        C353   1.261       .  A
C347        O354   1.262       .  A
C347        O348   1.256       .  A
C347        C596   1.438       .  S
C349        O351   1.260       .  A
C349        O355   1.259       .  A
C349        C604   1.480       .  S
C353        C592   1.435       .  S
In356       O358   2.240       .  S
In356       O359   2.260       .  S
In356       O367   2.272       .  S
In356       O361   2.240       .  S
In356       O363   2.245       .  S
In356       O364   2.268       .  S
In356       O365   2.251       .  S
In356       O368   2.279       .  S
C357        O363   1.259       .  A
C357        O365   1.258       .  A
C357        C587   1.434       .  S
O358        C366   1.259       .  A
O359        C366   1.263       .  A
C360        O367   1.262       .  A
C360        O361   1.256       .  A
C360        C593   1.439       .  S
C362        O364   1.258       .  A
C362        O368   1.257       .  A
C362        C600   1.485       .  S
C366        C586   1.439       .  S
C369        C370   1.535       .  S
C369        C375   1.522       .  S
C369        C373   1.533       .  S
C369        C616   1.461       .  S
C370        H377   1.087       .  S
C370        C371   1.368       .  D
C371        C372   1.538       .  S
C371        C630   1.440       .  S
C372        C376   1.539       .  S
C372        C374   1.536       .  S
C372        H378   1.112       .  S
C373        H379   1.086       .  S
C373        C374   1.366       .  D
C374        C598   1.436       .  S
C375        H380   1.088       .  S
C375        C376   1.354       .  D
C376        C588   1.437       .  S
C381       C1201   1.540   1_455  S
C381        C891   1.533   1_455  S
C381        C579   1.532       .  S
In382       O384   2.258       .  S
In382       O385   2.249       .  S
In382       O393   2.263       .  S
In382       O387   2.241       .  S
In382       O389   2.247       .  S
In382       O390   2.267       .  S
In382       O391   2.254       .  S
In382       O394   2.269       .  S
C383        O389   1.259       .  A
C383        O391   1.256       .  A
C383        C565   1.432       .  S
O384        C392   1.261       .  A
O385        C392   1.259       .  A
C386        O393   1.261       .  A
C386        O387   1.257       .  A
C386        C564   1.437       .  S
C388        O390   1.261       .  A
C388        O394   1.259       .  A
C388        C580   1.485       .  S
C392        C557   1.440       .  S
In395       O397   2.237       .  S
In395       O398   2.261       .  S
In395       O406   2.275       .  S
In395       O400   2.260       .  S
In395       O402   2.254       .  S
In395       O403   2.246       .  S
In395       O404   2.260       .  S
In395       O407   2.285       .  S
C396        O402   1.258       .  A
C396        O404   1.257       .  A
C396        C556   1.439       .  S
O397        C405   1.260       .  A
O398        C405   1.264       .  A
C399        O406   1.260       .  A
C399        O400   1.257       .  A
C399        C561   1.447       .  S
C401        O403   1.257       .  A
C401        O407   1.264       .  A
C401        C575   1.482       .  S
C405        C554   1.440       .  S
C408       C1039   1.539       .  S
C408       C1044   1.521       .  S
C408        C412   1.540       .  S
C408        C549   1.472       .  S
C409       C1038   1.538   1_455  S
C409        H416   1.087       .  S
C409        C410   1.369       .  D
C410        C411   1.535       .  S
C410        C547   1.443       .  S
C411        C415   1.537       .  S
C411       C1043   1.535   1_455  S
C411        H417   1.112       .  S
C412        H418   1.087       .  S
C412        C413   1.370       .  D
C413       C1041   1.537       .  S
C413        C555   1.444       .  S
C414       C1038   1.522   1_455  S
C414        H419   1.088   1_455  S
C414        C415   1.353       .  D
C415        C566   1.436       .  S
In420       O422   2.246       .  S
In420       O423   2.259       .  S
In420       O431   2.245       .  S
In420       O425   2.272       .  S
In420       O427   2.260       .  S
In420       O428   2.268       .  S
In420       O429   2.256       .  S
In420       O432   2.288       .  S
C421        O427   1.261       .  A
C421        O429   1.259       .  A
C421        C550   1.441       .  S
O422        C430   1.258       .  A
O423        C430   1.260       .  A
C424        O431   1.257       .  A
C424        O425   1.262       .  A
C424        C546   1.441       .  S
C426        O428   1.259       .  A
C426        O432   1.259       .  A
C426        C572   1.491       .  S
C430        C583   1.439       .  S
In433       O435   2.228       .  S
In433       O436   2.266       .  S
In433       O444   2.244       .  S
In433       O438   2.271       .  S
In433       O440   2.268       .  S
In433       O441   2.242       .  S
In433       O442   2.240       .  S
In433       O445   2.288       .  S
C434        O440   1.261       .  A
C434        O442   1.256       .  A
C434        C548   1.437       .  S
O435        C443   1.256       .  A
O436        C443   1.262       .  A
C437        O444   1.257       .  A
C437        O438   1.261       .  A
C437        C543   1.441       .  S
C439        O441   1.256       .  A
C439        O445   1.262       .  A
C439        C568   1.479       .  S
C443        C589   1.435       .  S
C446        C842   1.531   1_465  S
C446        C531   1.535       .  S
C446       C1165   1.534   1_455  S
In447       O449   2.240       .  S
In447       O450   2.262       .  S
In447       O458   2.261       .  S
In447       O452   2.243       .  S
In447       O454   2.246       .  S
In447       O455   2.259       .  S
In447       O456   2.247       .  S
In447       O459   2.256       .  S
C448        O454   1.256       .  A
C448        O456   1.258       .  A
C448        C525   1.430       .  S
O449        C457   1.257       .  A
O450        C457   1.262       .  A
C451        O458   1.259       .  A
C451        O452   1.257       .  A
C451        C521   1.436       .  S
C453        O455   1.263       .  A
C453        O459   1.258       .  A
C453        C539   1.481       .  S
C457        C617   1.438       .  S
In460       O462   2.239       .  S
In460       O463   2.257       .  S
In460       O471   2.265       .  S
In460       O465   2.241       .  S
In460       O467   2.244       .  S
In460       O468   2.264       .  S
In460       O469   2.253       .  S
In460       O472   2.262       .  S
C461        O467   1.259       .  A
C461        O469   1.257       .  A
C461        C520   1.432       .  S
O462        C470   1.258       .  A
O463        C470   1.261       .  A
C464        O471   1.261       .  A
C464        O465   1.256       .  A
C464        C524   1.437       .  S
C466        O468   1.260       .  A
C466        O472   1.260       .  A
C466        C536   1.482       .  S
C470        C610   1.435       .  S
C473        C477   1.534       .  S
C473        C518   1.460       .  S
C474        H481   1.087       .  S
C474        C475   1.368   1_545  D
C475        C476   1.537       .  S
C475        C516   1.443       .  S
C476        C480   1.536       .  S
C476        H482   1.112       .  S
C477        H483   1.086       .  S
C477        C478   1.366       .  D
C478        C526   1.436       .  S
C479        H484   1.087       .  S
C479        C480   1.355   1_545  D
C480        C519   1.437       .  S
In485       O487   2.243       .  S
In485       O488   2.264       .  S
In485       O496   2.265       .  S
In485       O490   2.259       .  S
In485       O492   2.232       .  S
In485       O493   2.253       .  S
In485       O494   2.247       .  S
In485       O497   2.280       .  S
C486        O492   1.259       .  A
C486        O494   1.258       .  A
C486        C517   1.428       .  S
O487        C495   1.258       .  A
O488        C495   1.262       .  A
C489        O496   1.260       .  A
C489        O490   1.258       .  A
C489        C511   1.444       .  S
C491        O493   1.257       .  A
C491        O497   1.262       .  A
C491        C528   1.485       .  S
C495        C551   1.440       .  S
In498       O500   2.246       .  S
In498       O501   2.263       .  S
In498       O509   2.267       .  S
In498       O503   2.240       .  S
In498       O505   2.250       .  S
In498       O506   2.280       .  S
In498       O507   2.255       .  S
In498       O510   2.258       .  S
C499        O505   1.258       .  A
C499        O507   1.260       .  A
C499        C515   1.437       .  S
O500        C508   1.258       .  A
O501        C508   1.261       .  A
C502        O509   1.261       .  A
C502        O503   1.257       .  A
C502        C514   1.439       .  S
C504        O506   1.260       .  A
C504        O510   1.256       .  A
C504        C532   1.481       .  S
C508        C560   1.440       .  S
C511       C1142   1.211       .  T
C512       C1141   1.208       .  T
C512        C513   1.416       .  S
C513        C514   1.208       .  T
C515        C516   1.207       .  T
C517        C518   1.202       .  T
C519        C520   1.204       .  T
C521        C522   1.206       .  T
C522        C523   1.414       .  S
C523        C524   1.207       .  T
C525        C526   1.202       .  T
C527        C761   1.539       .  S
C527        H529   1.087       .  S
C527        C528   1.354       .  D
C528       H1160   1.083       .  S
H530       C1158   1.082       .  S
C531        H533   1.088       .  S
C531        C532   1.348       .  D
C532        H534   1.087       .  S
C535       C1076   1.534       .  S
C535        H537   1.087       .  S
C535        C536   1.350       .  D
C536        H538   1.085       .  S
C539        H541   1.082       .  S
C539        C540   1.346       .  D
C543        C544   1.209       .  T
C544        C545   1.418       .  S
C545        C546   1.209       .  T
C547        C548   1.207       .  T
C549        C550   1.209       .  T
C551        C552   1.208       .  T
C552        C553   1.416       .  S
C553        C554   1.208       .  T
C555        C556   1.207       .  T
C557        C558   1.209       .  T
C558        C559   1.417       .  S
C559        C560   1.209       .  T
C562        C563   1.414       .  S
C563        C564   1.207       .  T
C565        C566   1.203       .  T
C567        H569   1.085       .  S
C567        C568   1.350       .  D
C568        H570   1.085       .  S
C571       C1011   1.544       .  S
C571        H573   1.092       .  S
C571        C572   1.349       .  D
C572        H574   1.092       .  S
C575        H577   1.085       .  S
C575        C576   1.348       .  D
C576        C696   1.539       .  S
C576        H578   1.086       .  S
C579        H581   1.092       .  S
C579        C580   1.347       .  D
C580        H582   1.088       .  S
C583        C584   1.208   1_554  T
C584        C585   1.416       .  S
C585        C586   1.208       .  T
C587        C588   1.204       .  T
C589        C590   1.206   1_554  T
C590        C591   1.412       .  S
C591        C592   1.206       .  T
C593       C1224   1.208       .  T
C594       C1223   1.207       .  T
C594        C595   1.415       .  S
C595        C596   1.207       .  T
C597        C598   1.202       .  T
C599        C972   1.533       .  S
C599       H1231   1.089       .  S
C599        C600   1.348       .  D
C600        H602   1.088       .  S
H601       C1229   1.089       .  S
C603        H605   1.089       .  S
C603        C604   1.348       .  D
C604        H606   1.087       .  S
C607        C608   1.205       .  T
C608        C609   1.412       .  S
C609        C610   1.206       .  T
C611        H613   1.087       .  S
C611        C612   1.344       .  D
C612        C972   1.530       .  S
C612        H614   1.088       .  S
C615        C616   1.202       .  T
C617        C618   1.208       .  T
C618        C619   1.415       .  S
C619        C620   1.207       .  T
C621        H623   1.088       .  S
C621        C622   1.351       .  D
C622        H624   1.088       .  S
C626        C627   1.408       .  S
C627        C628   1.203       .  T
C629        C630   1.205       .  T
In631       O633   2.252       .  S
In631       O634   2.267       .  S
In631       O642   2.257       .  S
In631       O636   2.241       .  S
In631       O638   2.242       .  S
In631       O639   2.257       .  S
In631       O640   2.246       .  S
In631       O643   2.272       .  S
C632        O638   1.257       .  A
C632        O640   1.259       .  A
C632        C944   1.431       .  S
O633        C641   1.258       .  A
O634        C641   1.261       .  A
C635        O642   1.262       .  A
C635        O636   1.258       .  A
C635        C940   1.436       .  S
C637        O639   1.259       .  A
C637        O643   1.256       .  A
C637        C937   1.481   1_545  S
C641        C935   1.442       .  S
In644       O646   2.235       .  S
In644       O647   2.272       .  S
In644       O655   2.245       .  S
In644       O649   2.279       .  S
In644       O651   2.247       .  S
In644       O652   2.254       .  S
In644       O653   2.243       .  S
In644       O656   2.285       .  S
C645        O651   1.259       .  A
C645        O653   1.257       .  A
C645        C930   1.431       .  S
O646        C654   1.256       .  A
O647        C654   1.263       .  A
C648        O655   1.256       .  A
C648        O649   1.262       .  A
C648        C943   1.444       .  S
C650        O652   1.258       .  A
C650        O656   1.264       .  A
C650        C926   1.485       .  S
C654        C922   1.439       .  S
C657       C1233   1.530       .  S
C657       C1251   1.541       .  S
In658       O660   2.234       .  S
In658       O661   2.263       .  S
In658       O669   2.270       .  S
In658       O663   2.239       .  S
In658       O665   2.245       .  S
In658       O666   2.258       .  S
In658       O667   2.251       .  S
In658       O670   2.270       .  S
C659        O665   1.257       .  A
C659        O667   1.258       .  A
C659        C912   1.432       .  S
O660        C668   1.257       .  A
O661        C668   1.263       .  A
C662        O669   1.261       .  A
C662        O663   1.256       .  A
C662        C911   1.438       .  S
C664        O666   1.259       .  A
C664        O670   1.258       .  A
C664        C919   1.481       .  S
C668        C907   1.438       .  S
In671       O673   2.235       .  S
In671       O674   2.264       .  S
In671       O682   2.263       .  S
In671       O676   2.254       .  S
In671       O678   2.257       .  S
In671       O679   2.250       .  S
In671       O680   2.231       .  S
In671       O683   2.279       .  S
C672        O678   1.258       .  A
C672        O680   1.258       .  A
C672        C902   1.430       .  S
O673        C681   1.257       .  A
O674        C681   1.262       .  A
C675        O682   1.259       .  A
C675        O676   1.258       .  A
C675        C908   1.441       .  S
C677        O679   1.259       .  A
C677        O683   1.262       .  A
C677        C915   1.485       .  S
C681        C901   1.437       .  S
C684        C685   1.536       .  S
C684        C690   1.523       .  S
C684        C688   1.533       .  S
C684        C931   1.463       .  S
C685        H692   1.087       .  S
C685        C686   1.366       .  D
C686        C687   1.534       .  S
C686        C945   1.437       .  S
C687        C691   1.537       .  S
C687        C689   1.537       .  S
C687        H693   1.112       .  S
C688        H694   1.086       .  S
C688        C689   1.367       .  D
C689        C913   1.437       .  S
C690        H695   1.087       .  S
C690        C691   1.357       .  D
C691        C903   1.436       .  S
C696       C1197   1.540       .  S
C696        C894   1.539       .  S
In697       O699   2.256       .  S
In697       O700   2.257       .  S
In697       O708   2.274       .  S
In697       O702   2.258       .  S
In697       O704   2.264       .  S
In697       O705   2.288       .  S
In697       O706   2.248       .  S
In697       O709   2.275       .  S
C698        O704   1.258       .  A
C698        O706   1.261       .  A
C698        C880   1.439       .  S
O699        C707   1.259       .  A
O700        C707   1.260       .  A
C701        O708   1.261       .  A
C701        O702   1.256       .  A
C701        C879   1.444       .  S
C703        O705   1.259       .  A
C703        O709   1.260       .  A
C703        C895   1.490       .  S
C707        C872   1.441       .  S
In710       O712   2.248       .  S
In710       O713   2.254       .  S
In710       O721   2.255       .  S
In710       O715   2.256       .  S
In710       O717   2.250       .  S
In710       O718   2.252       .  S
In710       O719   2.252       .  S
In710       O722   2.275   1_545  S
C711        O717   1.260       .  A
C711        O719   1.259       .  A
C711        C871   1.436       .  S
O712        C720   1.259       .  A
O713        C720   1.260       .  A
C714        O721   1.258       .  A
C714        O715   1.258       .  A
C714        C876   1.437       .  S
C716        O718   1.259       .  A
C716        O722   1.259   1_545  A
C716        C890   1.484   1_545  S
C720        C869   1.437       .  S
C723        C727   1.535       .  S
C723        C864   1.464       .  S
C724        H731   1.087       .  S
C724        C725   1.370       .  D
C725        C726   1.541       .  S
C725        C862   1.448       .  S
C726        C730   1.544       .  S
C726        H732   1.111       .  S
C727        H733   1.086       .  S
C727        C728   1.367       .  D
C728        C870   1.442       .  S
C729        H734   1.089       .  S
C729        C730   1.351       .  D
C730        C881   1.441       .  S
In735       O737   2.235       .  S
In735       O738   2.264       .  S
In735       O746   2.276       .  S
In735       O740   2.252       .  S
In735       O742   2.257       .  S
In735       O743   2.285       .  S
In735       O744   2.244       .  S
In735       O747   2.261       .  S
C736        O742   1.257       .  A
C736        O744   1.258       .  A
C736        C865   1.433       .  S
O737        C745   1.258       .  A
O738        C745   1.263       .  A
C739        O746   1.262       .  A
C739        O740   1.256       .  A
C739        C861   1.445       .  S
C741        O743   1.260       .  A
C741        O747   1.259       .  A
C741        C887   1.486       .  S
C745        C898   1.437       .  S
In748       O750   2.247       .  S
In748       O751   2.251       .  S
In748       O759   2.250       .  S
In748       O753   2.287       .  S
In748       O755   2.252       .  S
In748       O756   2.281       .  S
In748       O757   2.266       .  S
In748       O760   2.285       .  S
C749        O755   1.258       .  A
C749        O757   1.261       .  A
C749        C863   1.442       .  S
O750        C758   1.262       .  A
O751        C758   1.262       .  A
C752        O759   1.253       .  A
C752        O753   1.261       .  A
C752        C858   1.445       .  S
C754        O756   1.257       .  A
C754        O760   1.260       .  A
C754        C883   1.492       .  S
C758        C904   1.439       .  S
C761        C846   1.533       .  S
C761       C1170   1.538       .  S
In762       O764   2.256       .  S
In762       O765   2.262       .  S
In762       O773   2.256       .  S
In762       O767   2.240       .  S
In762       O769   2.242       .  S
In762       O770   2.285       .  S
In762       O771   2.253       .  S
In762       O774   2.245       .  S
C763        O769   1.257       .  A
C763        O771   1.260       .  A
C763        C840   1.433       .  S
O764        C772   1.258       .  A
O765        C772   1.259       .  A
C766        O773   1.261       .  A
C766        O767   1.259       .  A
C766        C836   1.436       .  S
C768        O770   1.261       .  A
C768        O774   1.254       .  A
C768        C854   1.477       .  S
C772        C932   1.442       .  S
In775       O777   2.239       .  S
In775       O778   2.258       .  S
In775       O786   2.268       .  S
In775       O780   2.247       .  S
In775       O782   2.241       .  S
In775       O783   2.253       .  S
In775       O784   2.243       .  S
In775       O787   2.285       .  S
C776        O782   1.258       .  A
C776        O784   1.261       .  A
C776        C835   1.431       .  S
O777        C785   1.259       .  A
O778        C785   1.262       .  A
C779        O786   1.260       .  A
C779        O780   1.254       .  A
C779        C839   1.437       .  S
C781        O783   1.258       .  A
C781        O787   1.260       .  A
C781        C851   1.486       .  S
C785        C925   1.438       .  S
C788       C1104   1.540       .  S
C788       C1109   1.523       .  S
C788        C792   1.537       .  S
C788        C833   1.466       .  S
C789       C1103   1.537       .  S
C789        H796   1.087       .  S
C789        C790   1.367       .  D
C790        C791   1.535       .  S
C790        C831   1.440       .  S
C791        C795   1.538       .  S
C791       C1108   1.538       .  S
C791        H797   1.112       .  S
C792        H798   1.087       .  S
C792        C793   1.368       .  D
C793       C1106   1.535   1_545  S
C793        C841   1.438       .  S
C794       C1103   1.522       .  S
C794        H799   1.088       .  S
C794        C795   1.354       .  D
C795        C834   1.435       .  S
In800       O802   2.247       .  S
In800       O803   2.258   1_655  S
In800       O811   2.243       .  S
In800       O805   2.270   1_655  S
In800       O807   2.247       .  S
In800       O808   2.261       .  S
In800       O809   2.243       .  S
In800       O812   2.274   1_655  S
C801        O807   1.261       .  A
C801        O809   1.260       .  A
C801        C832   1.435       .  S
O802        C810   1.258       .  A
O803        C810   1.260   1_455  A
C804        O811   1.257   1_455  A
C804        O805   1.262       .  A
C804        C826   1.441       .  S
C806        O808   1.258       .  A
C806        O812   1.260   1_655  A
C806        C843   1.483   1_655  S
C810        C866   1.438       .  S
In813       O815   2.247       .  S
In813       O816   2.271       .  S
In813       O824   2.277       .  S
In813       O818   2.243       .  S
In813       O820   2.239       .  S
In813       O821   2.273       .  S
In813       O822   2.253       .  S
In813       O825   2.268       .  S
C814        O820   1.258       .  A
C814        O822   1.261       .  A
C814        C830   1.434       .  S
O815        C823   1.256       .  A
O816        C823   1.261       .  A
C817        O824   1.261       .  A
C817        O818   1.254       .  A
C817        C829   1.440       .  S
C819        O821   1.261       .  A
C819        O825   1.259       .  A
C819        C847   1.486       .  S
C823        C875   1.441       .  S
C827        C828   1.417       .  S
C828        C829   1.209       .  T
C830        C831   1.205       .  T
C832        C833   1.206       .  T
C834        C835   1.203       .  T
C836        C837   1.206       .  T
C837        C838   1.413       .  S
C838        C839   1.207       .  T
C840        C841   1.204       .  T
C842        H844   1.085       .  S
C842        C843   1.351   1_655  D
C846        H848   1.089       .  S
C846        C847   1.349       .  D
C847        H849   1.087       .  S
C850        H852   1.084       .  S
C850        C851   1.350       .  D
C851        H853   1.083       .  S
C854        H856   1.083       .  S
C854        C855   1.350       .  D
C855       C1076   1.539   1_545  S
C855       H1172   1.087       .  S
H857       C1170   1.084       .  S
C858        C859   1.212       .  T
C859        C860   1.422       .  S
C860        C861   1.212       .  T
C862        C863   1.210       .  T
C864        C865   1.204       .  T
C866        C867   1.207       .  T
C867        C868   1.414       .  S
C868        C869   1.207       .  T
C870        C871   1.206       .  T
C872        C873   1.209       .  T
C873        C874   1.417       .  S
C874        C875   1.209       .  T
C876       C1192   1.207   1_545  T
C877       C1191   1.211       .  T
C877        C878   1.420       .  S
C878        C879   1.211       .  T
C880        C881   1.207       .  T
C882       C1011   1.538   1_545  S
C882        H884   1.093       .  S
C882        C883   1.348       .  D
C883        H885   1.085   1_545  S
C886        H888   1.087   1_655  S
C886        C887   1.351       .  D
C887        H889   1.085       .  S
C890        H892   1.091       .  S
C890        C891   1.347       .  D
C891        H893   1.095   1_665  S
C894        H896   1.087       .  S
C894        C895   1.354       .  D
C895        H897   1.086       .  S
C898        C899   1.207   1_554  T
C899        C900   1.414       .  S
C900        C901   1.207       .  T
C902        C903   1.203       .  T
C904        C905   1.208   1_554  T
C905        C906   1.415       .  S
C906        C907   1.207       .  T
C909        C910   1.415       .  S
C910        C911   1.207       .  T
C912        C913   1.203       .  T
C914        C915   1.351       .  D
C915        H917   1.084   1_655  S
C918        C972   1.533   1_545  S
C918        H920   1.089       .  S
C918        C919   1.346       .  D
C919        H921   1.088       .  S
C922        C923   1.208       .  T
C923        C924   1.416       .  S
C924        C925   1.208       .  T
C926        H928   1.090       .  S
C926        C927   1.348       .  D
C927        H929   1.090       .  S
C930        C931   1.203       .  T
C932        C933   1.210       .  T
C933        C934   1.419       .  S
C934        C935   1.210       .  T
C936        C972   1.531       .  S
C936        H938   1.090       .  S
C936        C937   1.344       .  D
C937        H939   1.089   1_565  S
C940       C1256   1.206       .  T
C941       C1255   1.211       .  T
C941        C942   1.421       .  S
C942        C943   1.211       .  T
C944        C945   1.203       .  T
In946       O948   2.241       .  S
In946       O949   2.261       .  S
In946       O957   2.278       .  S
In946       O951   2.244       .  S
In946       O953   2.244       .  S
In946       O954   2.277       .  S
In946       O955   2.246       .  S
In946       O958   2.274       .  S
C947        O953   1.257       .  A
C947        O955   1.259       .  A
C947       C1259   1.429       .  S
O948        C956   1.258       .  A
O949        C956   1.262       .  A
C950        O957   1.264       .  A
C950        O951   1.256       .  A
C950       C1255   1.444       .  S
C952        O954   1.260       .  A
C952        O958   1.259       .  A
C952       C1252   1.488       .  S
C956       C1250   1.439       .  S
In959       O961   2.235       .  S
In959       O962   2.267       .  S
In959       O970   2.231       .  S
In959       O964   2.265       .  S
In959       O966   2.240       .  S
In959       O967   2.251       .  S
In959       O968   2.235       .  S
In959       O971   2.273       .  S
C960        O966   1.256       .  A
C960        O968   1.259       .  A
C960       C1245   1.425       .  S
O961        C969   1.255       .  A
O962        C969   1.261       .  A
C963        O970   1.256       .  A
C963        O964   1.262       .  A
C963       C1258   1.435       .  S
C965        O967   1.262       .  A
C965        O971   1.260       .  A
C965       C1241   1.486       .  S
C969       C1237   1.435       .  S
In973       O975   2.240       .  S
In973       O976   2.261       .  S
In973       O984   2.267       .  S
In973       O978   2.242       .  S
In973       O980   2.237       .  S
In973       O981   2.267       .  S
In973       O982   2.247       .  S
In973       O985   2.260       .  S
C974        O980   1.258       .  A
C974        O982   1.259       .  A
C974       C1227   1.429       .  S
O975        C983   1.257       .  A
O976        C983   1.262       .  A
C977        O984   1.261       .  A
C977        O978   1.256       .  A
C977       C1226   1.439       .  S
C979        O981   1.260       .  A
C979        O985   1.257       .  A
C979       C1234   1.480       .  S
C983       C1222   1.438       .  S
In986       O988   2.242       .  S
In986       O989   2.267       .  S
In986       O997   2.268       .  S
In986       O991   2.236       .  S
In986       O993   2.238       .  S
In986       O994   2.265       .  S
In986       O995   2.247       .  S
In986       O998   2.280       .  S
C987        O993   1.259       .  A
C987        O995   1.257       .  A
C987       C1217   1.429       .  S
O988        C996   1.258       .  A
O989        C996   1.263       .  A
C990        O997   1.262       .  A
C990        O991   1.255       .  A
C990       C1223   1.437   1_655  S
C992        O994   1.260       .  A
C992        O998   1.258       .  A
C992       C1230   1.489       .  S
C996       C1216   1.441       .  S
C999       C1000   1.534       .  S
C999       C1005   1.522       .  S
C999       C1003   1.533       .  S
C999       C1246   1.456       .  S
C1000      H1007   1.087       .  S
C1000      C1001   1.366       .  D
C1001      C1002   1.535       .  S
C1001      C1260   1.434       .  S
C1002      C1006   1.536       .  S
C1002      C1004   1.535       .  S
C1002      H1008   1.112       .  S
C1003      H1009   1.086       .  S
C1003      C1004   1.365       .  D
C1004      C1228   1.435       .  S
C1005      H1010   1.088       .  S
C1005      C1006   1.355       .  D
C1006      C1218   1.434       .  S
C1011      C1209   1.537       .  S
In1012     O1014   2.264       .  S
In1012     O1015   2.245       .  S
In1012     O1023   2.254       .  S
In1012     O1017   2.246       .  S
In1012     O1019   2.262       .  S
In1012     O1020   2.273       .  S
In1012     O1021   2.255       .  S
In1012     O1024   2.266       .  S
C1013      O1019   1.259       .  A
C1013      O1021   1.256       .  A
C1013      C1195   1.439       .  S
O1014      C1022   1.261       .  A
O1015      C1022   1.259       .  A
C1016      O1023   1.260       .  A
C1016      O1017   1.259       .  A
C1016      C1194   1.437       .  S
C1018      O1020   1.260       .  A
C1018      O1024   1.257       .  A
C1018      C1210   1.482       .  S
C1022      C1187   1.439       .  S
In1025     O1027   2.236       .  S
In1025     O1028   2.264       .  S
In1025     O1036   2.268       .  S
In1025     O1030   2.248       .  S
In1025     O1032   2.254       .  S
In1025     O1033   2.250       .  S
In1025     O1034   2.240       .  S
In1025     O1037   2.281       .  S
C1026      O1032   1.261       .  A
C1026      O1034   1.258       .  A
C1026      C1186   1.434       .  S
O1027      C1035   1.256       .  A
O1028      C1035   1.260       .  A
C1029      O1036   1.263       .  A
C1029      O1030   1.257       .  A
C1029      C1191   1.443       .  S
C1031      O1033   1.257       .  A
C1031      O1037   1.262       .  A
C1031      C1205   1.481       .  S
C1035      C1184   1.436       .  S
C1038      C1042   1.538       .  S
C1038      C1179   1.466       .  S
C1039      H1046   1.087       .  S
C1039      C1040   1.370       .  D
C1040      C1041   1.539       .  S
C1040      C1177   1.447       .  S
C1041      C1045   1.542       .  S
C1041      H1047   1.112       .  S
C1042      H1048   1.087       .  S
C1042      C1043   1.369       .  D
C1043      C1185   1.439       .  S
C1044      H1049   1.088       .  S
C1044      C1045   1.354       .  D
C1045      C1196   1.442       .  S
In1050     O1052   2.248       .  S
In1050     O1053   2.264       .  S
In1050     O1061   2.272       .  S
In1050     O1055   2.246       .  S
In1050     O1057   2.241       .  S
In1050     O1058   2.281       .  S
In1050     O1059   2.257       .  S
In1050     O1062   2.275       .  S
C1051      O1057   1.261       .  A
C1051      O1059   1.258       .  A
C1051      C1180   1.435       .  S
O1052      C1060   1.258       .  A
O1053      C1060   1.262       .  A
C1054      O1061   1.261       .  A
C1054      O1055   1.256       .  A
C1054      C1176   1.441       .  S
C1056      O1058   1.259       .  A
C1056      O1062   1.257       .  A
C1056      C1202   1.488       .  S
C1060      C1213   1.441       .  S
In1063     O1065   2.240       .  S
In1063     O1066   2.269       .  S
In1063     O1074   2.247       .  S
In1063     O1068   2.273       .  S
In1063     O1070   2.267       .  S
In1063     O1071   2.248       .  S
In1063     O1072   2.243       .  S
In1063     O1075   2.292       .  S
C1064      O1070   1.262       .  A
C1064      O1072   1.257       .  A
C1064      C1178   1.441       .  S
O1065      C1073   1.256       .  A
O1066      C1073   1.260       .  A
C1067      O1074   1.256       .  A
C1067      O1068   1.262       .  A
C1067      C1173   1.442       .  S
C1069      O1071   1.257       .  A
C1069      O1075   1.262       .  A
C1069      C1198   1.484       .  S
C1073      C1219   1.438       .  S
C1076      C1161   1.537       .  S
In1077     O1079   2.245       .  S
In1077     O1080   2.266       .  S
In1077     O1088   2.268       .  S
In1077     O1082   2.246       .  S
In1077     O1084   2.246       .  S
In1077     O1085   2.263       .  S
In1077     O1086   2.253       .  S
In1077     O1089   2.260       .  S
C1078      O1084   1.257       .  A
C1078      O1086   1.259       .  A
C1078      C1155   1.434       .  S
O1079      C1087   1.257       .  A
O1080      C1087   1.261       .  A
C1081      O1088   1.260       .  A
C1081      O1082   1.257       .  A
C1081      C1151   1.440       .  S
C1083      O1085   1.261       .  A
C1083      O1089   1.258       .  A
C1083      C1169   1.480       .  S
C1087      C1247   1.440       .  S
In1090     O1092   2.237       .  S
In1090     O1093   2.261       .  S
In1090     O1101   2.266       .  S
In1090     O1095   2.244       .  S
In1090     O1097   2.241       .  S
In1090     O1098   2.262       .  S
In1090     O1099   2.253       .  S
In1090     O1102   2.269       .  S
C1091      O1097   1.259       .  A
C1091      O1099   1.258       .  A
C1091      C1150   1.433       .  S
O1092      C1100   1.256       .  A
O1093      C1100   1.261       .  A
C1094      O1101   1.261       .  A
C1094      O1095   1.257       .  A
C1094      C1154   1.440       .  S
C1096      O1098   1.259       .  A
C1096      O1102   1.259       .  A
C1096      C1166   1.484       .  S
C1100      C1240   1.435       .  S
C1103      C1107   1.535       .  S
C1103      C1148   1.464       .  S
C1104      H1111   1.087       .  S
C1104      C1105   1.369   1_545  D
C1105      C1106   1.536       .  S
C1105      C1146   1.444       .  S
C1106      C1110   1.537       .  S
C1106      H1112   1.112       .  S
C1107      H1113   1.086       .  S
C1107      C1108   1.368       .  D
C1108      C1156   1.440       .  S
C1109      H1114   1.087       .  S
C1109      C1110   1.354   1_545  D
C1110      C1149   1.437       .  S
In1115     O1117   2.233       .  S
In1115     O1118   2.259   1_655  S
In1115     O1126   2.256   1_655  S
In1115     O1120   2.260       .  S
In1115     O1122   2.239       .  S
In1115     O1123   2.251       .  S
In1115     O1124   2.254       .  S
In1115     O1127   2.272   1_655  S
C1116      O1122   1.258       .  A
C1116      O1124   1.258       .  A
C1116      C1147   1.432       .  S
O1117      C1125   1.258       .  A
O1118      C1125   1.263   1_455  A
C1119      O1126   1.258       .  A
C1119      O1120   1.258   1_455  A
C1119      C1141   1.439       .  S
C1121      O1123   1.259   1_455  A
C1121      O1127   1.262       .  A
C1121      C1158   1.483       .  S
C1125      C1181   1.436       .  S
In1128     O1130   2.250       .  S
In1128     O1131   2.255       .  S
In1128     O1139   2.273       .  S
In1128     O1133   2.260       .  S
In1128     O1135   2.258       .  S
In1128     O1136   2.272       .  S
In1128     O1137   2.248       .  S
In1128     O1140   2.273       .  S
C1129      O1135   1.262       .  A
C1129      O1137   1.259       .  A
C1129      C1145   1.439       .  S
O1130      C1138   1.258       .  A
O1131      C1138   1.260       .  A
C1132      O1139   1.259       .  A
C1132      O1133   1.256       .  A
C1132      C1144   1.444       .  S
C1134      O1136   1.258       .  A
C1134      O1140   1.259       .  A
C1134      C1162   1.483       .  S
C1138      C1190   1.438       .  S
C1142      C1143   1.421       .  S
C1143      C1144   1.211       .  T
C1145      C1146   1.207       .  T
C1147      C1148   1.204       .  T
C1149      C1150   1.204       .  T
C1151      C1152   1.208       .  T
C1152      C1153   1.417       .  S
C1153      C1154   1.208       .  T
C1155      C1156   1.205       .  T
C1157      H1159   1.087       .  S
C1157      C1158   1.353   1_655  D
C1161      H1163   1.087       .  S
C1161      C1162   1.352       .  D
C1162      H1164   1.087       .  S
C1165      H1167   1.086       .  S
C1165      C1166   1.350       .  D
C1166      H1168   1.083       .  S
C1169      H1171   1.082       .  S
C1169      C1170   1.347       .  D
C1173      C1174   1.210       .  T
C1174      C1175   1.419       .  S
C1175      C1176   1.210       .  T
C1177      C1178   1.209       .  T
C1179      C1180   1.206       .  T
C1181      C1182   1.206       .  T
C1182      C1183   1.413       .  S
C1183      C1184   1.206       .  T
C1185      C1186   1.205       .  T
C1187      C1188   1.208       .  T
C1188      C1189   1.415       .  S
C1189      C1190   1.207       .  T
C1192      C1193   1.414       .  S
C1193      C1194   1.207       .  T
C1195      C1196   1.207       .  T
C1197      H1199   1.085       .  S
C1197      C1198   1.352       .  D
C1198      H1200   1.085       .  S
C1201      H1203   1.079       .  S
C1201      C1202   1.350       .  D
C1202      H1204   1.078       .  S
C1205      H1207   1.085   1_655  S
C1205      C1206   1.349       .  D
C1206      H1208   1.086       .  S
C1209      H1211   1.094       .  S
C1209      C1210   1.346       .  D
C1210      H1212   1.094       .  S
C1213      C1214   1.209   1_554  T
C1214      C1215   1.418       .  S
C1215      C1216   1.209       .  T
C1217      C1218   1.202       .  T
C1219      C1220   1.207   1_554  T
C1220      C1221   1.415       .  S
C1221      C1222   1.207       .  T
C1224      C1225   1.416       .  S
C1225      C1226   1.208       .  T
C1227      C1228   1.202       .  T
C1229      C1230   1.347       .  D
C1230      H1232   1.088       .  S
C1233      H1235   1.089       .  S
C1233      C1234   1.346       .  D
C1234      H1236   1.087       .  S
C1237      C1238   1.205       .  T
C1238      C1239   1.412       .  S
C1239      C1240   1.205       .  T
C1241      H1243   1.087       .  S
C1241      C1242   1.345       .  D
C1242      H1244   1.088       .  S
C1245      C1246   1.200       .  T
C1247      C1248   1.208       .  T
C1248      C1249   1.416       .  S
C1249      C1250   1.208       .  T
C1251      H1253   1.088       .  S
C1251      C1252   1.351       .  D
C1252      H1254   1.087       .  S
C1256      C1257   1.413   1_545  S
C1257      C1258   1.206       .  T
C1259      C1260   1.202       .  T
