geometry optimzed in LAMMPS
_audit_creation_date              2020-11-30 
_audit_creation_method            'lammps2cif' 
_symmetry_space_group_name_H-M    'P1' 
_symmetry_Int_Tables_number       1 
_symmetry_cell_setting            triclinic 
loop_ 
_symmetry_equiv_pos_as_xyz 
  x,y,z 
_cell_length_a                    40.84305973 
_cell_length_b                    40.84299585186651 
_cell_length_c                    40.93502986577607 
_cell_angle_alpha                 89.90028083779845 
_cell_angle_beta                  89.8714863153799 
_cell_angle_gamma                 89.51019846794016 
loop_ 
_atom_site_label 
_atom_site_type_symbol 
_atom_site_fract_x 
_atom_site_fract_y 
_atom_site_fract_z 
_atom_site_charge 
N1          N  0.49250266  0.00025295  0.44928961    -0.36500
N2          N  0.50371019  0.05319844  0.49435533    -0.57000
N3          N  0.50965287  0.00616129  0.54759112    -0.36500
N4          N  0.49540000  0.95325127  0.50249206    -0.57000
C5          C  0.48379624  0.02623981  0.43062037     0.27100
C6          C  0.48104461  0.97319542  0.43443747     0.27100
C7          C  0.50818212  0.03468953  0.56437238     0.27100
C8          C  0.50355598  0.98164981  0.56901854     0.27100
C9          C  0.50707910  0.06940300  0.46577849     0.35700
C10         C  0.51672898  0.07249704  0.51757857     0.35700
C11         C  0.49617383  0.93235093  0.47689985     0.35700
C12         C  0.50295474  0.93536988  0.52931217     0.35700
C13         C  0.46640345  0.01556650  0.40365695    -0.21800
C14         C  0.46478096  0.98200100  0.40600513    -0.21800
C15         C  0.50146627  0.02819595  0.59694353    -0.21800
C16         C  0.49916387  0.99478879  0.59998587    -0.21800
C17         C  0.52253506  0.09904060  0.47080475    -0.22800
C18         C  0.52851162  0.10107424  0.50372869    -0.22800
C19         C  0.50415657  0.90106814  0.48753210    -0.22800
C20         C  0.50772270  0.90282214  0.52072963    -0.22800
C21         C  0.49393870  0.05880433  0.43579441    -0.18200
C22         C  0.48751053  0.94069332  0.44447333    -0.18200
C23         C  0.50365775  0.94770604  0.56162247    -0.18200
C24         C  0.51482466  0.06617450  0.55141597    -0.18200
H25         H  0.45664283  0.03033953  0.38391832     0.14700
H26         H  0.45347618  0.96584621  0.38847926     0.14700
H27         H  0.49911897  0.04560261  0.61671880     0.14700
H28         H  0.49502327  0.98185040  0.62265262     0.14700
H29         H  0.52817957  0.11756727  0.45276272     0.13000
H30         H  0.53971517  0.12147124  0.51616539     0.13000
H31         H  0.50662534  0.87902491  0.47309731     0.13000
H32         H  0.51313385  0.88223584  0.53649860     0.13000
H33         H  0.50918504  0.00041313  0.46840977     0.26300
H34         H  0.51775630  0.00335837  0.52369865     0.26300
N35         N  0.95234010  0.49975114  0.49540104    -0.36500
N36         N  0.00201089  0.54962871  0.50117171    -0.57000
N37         N  0.05236469  0.49929113  0.49915148    -0.36500
N38         N  0.00296066  0.44905009  0.49594930    -0.57000
C39         C  0.93327002  0.52611657  0.50249284     0.27100
C40         C  0.93401462  0.47267592  0.50020751     0.27100
C41         C  0.06959262  0.52516893  0.51006194     0.27100
C42         C  0.07030369  0.47208772  0.50561327     0.27100
C43         C  0.97574936  0.56918185  0.49575687     0.35700
C44         C  0.02876197  0.56851561  0.49742331     0.35700
C45         C  0.97682567  0.43079039  0.48781518     0.35700
C46         C  0.02975381  0.43088183  0.48857965     0.35700
C47         C  0.90214992  0.51556517  0.51092851    -0.21800
C48         C  0.90281609  0.48195970  0.51012116    -0.21800
C49         C  0.09870986  0.51424884  0.52384321    -0.21800
C50         C  0.09923091  0.48068631  0.52087157    -0.21800
C51         C  0.98604063  0.60079111  0.48883259    -0.22800
C52         C  0.01956912  0.60015149  0.48919660    -0.22800
C53         C  0.98703803  0.40087485  0.47530845    -0.22800
C54         C  0.02064078  0.40095896  0.47573050    -0.22800
C55         C  0.94283163  0.55942574  0.50015913    -0.18200
C56         C  0.94392041  0.43999131  0.49354916    -0.18200
C57         C  0.06214651  0.44007535  0.49578261    -0.18200
C58         C  0.06097402  0.55840552  0.50514251    -0.18200
H59         H  0.88085974  0.53034844  0.51674580     0.14700
H60         H  0.88232442  0.46623371  0.51558447     0.14700
H61         H  0.11788942  0.52899309  0.53434208     0.14700
H62         H  0.11882775  0.46448666  0.52866545     0.14700
H63         H  0.97133553  0.62248463  0.48463367     0.13000
H64         H  0.03528016  0.62097865  0.48518147     0.13000
H65         H  0.97185197  0.38098732  0.46697427     0.13000
H66         H  0.03650965  0.38111727  0.46787109     0.13000
H67         H  0.97532738  0.50030684  0.48459821     0.26300
H68         H  0.03178999  0.50039092  0.48426552     0.26300
N69         N  0.50067613  0.50792441  0.94747584    -0.36500
N70         N  0.44916473  0.49713645  0.99531567    -0.57000
N71         N  0.49645153  0.50599036  0.04777750    -0.36500
N72         N  0.54813385  0.51386991  0.99970293    -0.57000
C73         C  0.47613017  0.49890286  0.92749389     0.27100
C74         C  0.52891067  0.50523384  0.93038302     0.27100
C75         C  0.47036384  0.49586090  0.06536355     0.27100
C76         C  0.52322175  0.50342705  0.06707751     0.27100
C77         C  0.43046353  0.49833170  0.96806126     0.35700
C78         C  0.42823979  0.49649009  0.02098639     0.35700
C79         C  0.56713271  0.52231578  0.97412698     0.35700
C80         C  0.56497828  0.52175527  0.02680123     0.35700
C81         C  0.48894068  0.49107766  0.89698146    -0.21800
C82         C  0.52223694  0.49449251  0.89901466    -0.21800
C83         C  0.48062182  0.48765517  0.09667336    -0.21800
C84         C  0.51398852  0.49164576  0.09748732    -0.21800
C85         C  0.39761305  0.49704982  0.97643124    -0.22800
C86         C  0.39618680  0.49590306  0.00982601    -0.22800
C87         C  0.59606950  0.53600595  0.98493913    -0.22800
C88         C  0.59473028  0.53559975  0.01842201    -0.22800
C89         C  0.44242651  0.49929073  0.93556905    -0.18200
C90         C  0.56028464  0.51430273  0.94145906    -0.18200
C91         C  0.55539392  0.51332648  0.05878780    -0.18200
C92         C  0.43741632  0.49510379  0.05437973    -0.18200
H93         H  0.47602232  0.48375637  0.87522465     0.14700
H94         H  0.53945321  0.49029964  0.87928518     0.14700
H95         H  0.46580235  0.47970608  0.11704856     0.14700
H96         H  0.52951462  0.48731193  0.11848021     0.14700
H97         H  0.37676050  0.49675039  0.96017316     0.13000
H98         H  0.37393825  0.49442072  0.02411783     0.13000
H99         H  0.61640677  0.54439624  0.97023456     0.13000
H100        H  0.61380614  0.54375103  0.03473935     0.13000
H101        H  0.49776944  0.51910542  0.97025037     0.26300
H102        H  0.49537944  0.51751546  0.02499298     0.26300
N103        N  0.00342827  0.49800640  0.05086813    -0.36500
N104        N  0.00915882  0.55271578  0.00554192    -0.57000
N105        N  0.01721481  0.50687109  0.95211549    -0.36500
N106        N  0.00860958  0.45228806  0.99732268    -0.57000
C107        C  0.99297042  0.52317111  0.06973177     0.27100
C108        C  0.99398086  0.47002021  0.06573633     0.27100
C109        C  0.01294323  0.53534161  0.93553885     0.27100
C110        C  0.01202114  0.48216482  0.93076921     0.27100
C111        C  0.01099456  0.56902617  0.03415065     0.35700
C112        C  0.01874533  0.57383646  0.98199993     0.35700
C113        C  0.00984870  0.43062827  0.02234114     0.35700
C114        C  0.01505089  0.43509627  0.96984200     0.35700
C115        C  0.97650772  0.51103129  0.09678783    -0.21800
C116        C  0.97728846  0.47743835  0.09433559    -0.21800
C117        C  0.00519423  0.52861971  0.90332520    -0.21800
C118        C  0.00532774  0.49527050  0.90013163    -0.21800
C119        C  0.02187726  0.60065468  0.02877894    -0.22800
C120        C  0.02680875  0.60369182  0.99570755    -0.22800
C121        C  0.01702262  0.39955889  0.01068983    -0.22800
C122        C  0.01964020  0.40225356  0.97745633    -0.22800
C123        C  0.00044532  0.55653330  0.06460392    -0.18200
C124        C  0.00180816  0.43798487  0.05513972    -0.18200
C125        C  0.01449231  0.44816744  0.93778365    -0.18200
C126        C  0.01756056  0.56725807  0.94813706    -0.18200
H127        H  0.96578856  0.52492952  0.11666228     0.14700
H128        H  0.96712264  0.46038230  0.11181623     0.14700
H129        H  0.00037178  0.54589922  0.88382272     0.14700
H130        H  0.00113629  0.48251069  0.87744932     0.14700
H131        H  0.02542299  0.61971086  0.04673464     0.13000
H132        H  0.03492169  0.62551903  0.98315483     0.13000
H133        H  0.01923774  0.37702885  0.02447430     0.13000
H134        H  0.02406092  0.38206235  0.96094719     0.13000
H135        H  0.01969976  0.49967901  0.03137983     0.26300
H136        H  0.02643282  0.50443307  0.97563144     0.26300
N137        N  0.54759247  0.00182681  0.99153680    -0.36500
N138        N  0.49946907  0.95058612  0.99880705    -0.57000
N139        N  0.44760152  0.99962402  0.99449452    -0.36500
N140        N  0.49524313  0.05092150  0.98944425    -0.57000
C141        C  0.56740531  0.97638283  0.99993109     0.27100
C142        C  0.56484603  0.02971826  0.99560693     0.27100
C143        C  0.43101618  0.97339703  0.00564339     0.27100
C144        C  0.42880843  0.02637375  0.00053708     0.27100
C145        C  0.52647541  0.93150982  0.99534506     0.35700
C146        C  0.47337008  0.93060982  0.99611191     0.35700
C147        C  0.52094050  0.06957049  0.98071296     0.35700
C148        C  0.46798335  0.06819870  0.98170826     0.35700
C149        C  0.59791843  0.98840301  0.00851287    -0.21800
C150        C  0.59610343  0.02191729  0.00632411    -0.21800
C151        C  0.40148248  0.98354113  0.01918610    -0.21800
C152        C  0.40010822  0.01705135  0.01601060    -0.21800
C153        C  0.51731482  0.89911389  0.99119033    -0.22800
C154        C  0.48375643  0.89867075  0.99104873    -0.22800
C155        C  0.51001340  0.09881531  0.96718856    -0.22800
C156        C  0.47638203  0.09789462  0.96770727    -0.22800
C157        C  0.55915365  0.94264325  0.99835549    -0.18200
C158        C  0.55389806  0.06185889  0.98791494    -0.18200
C159        C  0.43590054  0.05852194  0.99002330    -0.18200
C160        C  0.44046010  0.94042667  0.00095384    -0.18200
H161        H  0.61964551  0.97478372  0.01532405     0.14700
H162        H  0.61590761  0.03856194  0.01144525     0.14700
H163        H  0.38258223  0.96827126  0.02957874     0.14700
H164        H  0.37999394  0.03268967  0.02365610     0.14700
H165        H  0.53292691  0.87773044  0.98899807     0.13000
H166        H  0.46880857  0.87708565  0.98848409     0.13000
H167        H  0.52476038  0.11897850  0.95858370     0.13000
H168        H  0.46003353  0.11718741  0.95948669     0.13000
H169        H  0.52486125  0.00009678  0.98041004     0.26300
H170        H  0.46826625  0.99878663  0.97960952     0.26300
O171        O  0.82531647  0.73328696  0.80048371    -0.78400
C172        C  0.74715003  0.78023435  0.85442141     0.82700
O173        O  0.72700496  0.68824868  0.75548542    -0.79500
O174        O  0.68460615  0.79769062  0.76710451    -0.81000
O175        O  0.79654306  0.82957922  0.73996286    -0.80800
O176        O  0.84129305  0.76309224  0.75792117    -0.79400
Zn177      Zn  0.77600923  0.73538350  0.80186430     1.55700
O178        O  0.75199399  0.84382219  0.76836402    -0.80800
Cd179      Cd  0.79685942  0.77886282  0.73916800     1.59700
Cd180      Cd  0.73090411  0.73501158  0.73603813     1.59600
O181        O  0.79562823  0.76194729  0.69139997    -0.80800
O182        O  0.75931233  0.76169395  0.76543816    -1.91300
Cd183      Cd  0.73288027  0.79932309  0.78291080     1.59900
O184        O  0.75152608  0.73051824  0.68930464    -0.80700
O185        O  0.73410800  0.79926272  0.83334634    -0.79400
C186        C  0.73979878  0.67404758  0.78021943     0.83100
C187        C  0.84782460  0.74514526  0.78255326     0.82800
O188        O  0.76315795  0.75466191  0.84597380    -0.78300
C189        C  0.77750518  0.85132775  0.75213890     0.83600
O190        O  0.75907205  0.68908900  0.79940348    -0.78400
C191        C  0.77700701  0.74257777  0.67581959     0.83700
C192        C  0.66949515  0.77966285  0.74677323     0.84100
O193        O  0.68388442  0.75565359  0.73253339    -0.80900
O194        O  0.17599585  0.76218926  0.74837932    -0.78400
C195        C  0.23562444  0.84772365  0.73532786     0.82700
O196        O  0.26646175  0.73001080  0.67509306    -0.79500
O197        O  0.32980001  0.79549619  0.75474629    -0.81000
O198        O  0.25821720  0.74817016  0.83203934    -0.80800
O199        O  0.19166689  0.73242576  0.79125621    -0.79400
Zn200      Zn  0.21843146  0.77511932  0.72621154     1.55700
O201        O  0.27887885  0.79707794  0.82001720    -0.80800
Cd202      Cd  0.24175762  0.73134896  0.78763876     1.59700
Cd203      Cd  0.28591747  0.73341179  0.72179879     1.59600
O204        O  0.25721614  0.68339862  0.78180521    -0.80800
O205        O  0.25634108  0.75976962  0.75078103    -1.91300
Cd206      Cd  0.28089456  0.79777303  0.76916269     1.59900
O207        O  0.29045703  0.68568182  0.73870772    -0.80700
O208        O  0.26088636  0.84195987  0.75277840    -0.79400
C209        C  0.23916228  0.73956130  0.66318288     0.83100
C210        C  0.16935835  0.74586793  0.77408087     0.82800
O211        O  0.21828784  0.82458875  0.72388897    -0.78300
C212        C  0.27059611  0.77525343  0.84076269     0.83600
O213        O  0.21886169  0.75632766  0.68022209    -0.78400
C214        C  0.27692977  0.66968657  0.76179213     0.83700
C215        C  0.34601732  0.77723312  0.73508877     0.84100
O216        O  0.33242374  0.75356626  0.72015984    -0.80900
O217        O  0.74780643  0.18105349  0.75026331    -0.78400
C218        C  0.73446496  0.24171492  0.83701847     0.82700
O219        O  0.67797650  0.27221763  0.71674567    -0.79500
O220        O  0.75054779  0.33535656  0.78506287    -0.81000
O221        O  0.83491838  0.26102344  0.74422767    -0.80800
O222        O  0.79205418  0.19474832  0.72151416    -0.79400
Zn223      Zn  0.72706030  0.22426534  0.76436480     1.55700
O224        O  0.81889904  0.29049847  0.78744888    -0.80800
Cd225      Cd  0.79120789  0.24547035  0.72348638     1.59700
Cd226      Cd  0.72475511  0.29073801  0.72072188     1.59600
O227        O  0.78875487  0.26235069  0.67555137    -0.80800
O228        O  0.75249280  0.26160281  0.74929765    -1.91300
Cd229      Cd  0.76799795  0.28765467  0.78772860     1.59900
O230        O  0.74371684  0.29327438  0.67367487    -0.80700
O231        O  0.75130331  0.26739682  0.83170209    -0.79400
C232        C  0.66473552  0.24648279  0.72822820     0.83100
C233        C  0.77308520  0.17325005  0.73358237     0.82800
O234        O  0.72433120  0.22386666  0.81365933    -0.78300
C235        C  0.84133376  0.27890827  0.76888641     0.83600
O236        O  0.68078576  0.22659989  0.74632506    -0.78400
C237        C  0.76872687  0.28058058  0.65975324     0.83700
C238        C  0.73240851  0.35121863  0.76513399     0.84100
O239        O  0.72072909  0.33789677  0.73956817    -0.80900
O240        O  0.25917852  0.24833376  0.65559294    -0.78400
C241        C  0.34378801  0.23700173  0.72061901     0.82700
O242        O  0.21758688  0.18586793  0.74649840    -0.79500
O243        O  0.28904309  0.25754519  0.80968839    -0.81000
O244        O  0.25277724  0.34105851  0.73222349    -0.80800
O245        O  0.23408797  0.29582887  0.66656596    -0.79400
Zn246      Zn  0.27162116  0.22976442  0.70036864     1.55700
O247        O  0.29498634  0.32434598  0.76245596    -0.80800
Cd248      Cd  0.23187033  0.29745843  0.71692247     1.59700
Cd249      Cd  0.22330873  0.23366664  0.76386556     1.59600
O250        O  0.18302133  0.29908774  0.73121622    -0.80800
O251        O  0.25499460  0.25814358  0.73531921    -1.91300
Cd252      Cd  0.29280310  0.27383571  0.76197396     1.59900
O253        O  0.17717926  0.25682361  0.76494074    -0.80700
O254        O  0.33697799  0.25667822  0.74377816    -0.79400
C255        C  0.23150440  0.17050449  0.72302338     0.83100
C256        C  0.24507454  0.27476186  0.64626413     0.82800
O257        O  0.32145102  0.22461139  0.70282486    -0.78300
C258        C  0.27768892  0.34713930  0.74983384     0.83600
O259        O  0.25213584  0.18457344  0.70442003    -0.78400
C260        C  0.16542905  0.28213170  0.75053112     0.83700
C261        C  0.26785993  0.24084489  0.82523403     0.84100
O262        O  0.24185120  0.23069985  0.81130911    -0.80900
O263        O  0.74281531  0.74425955  0.18422083    -0.78400
C264        C  0.83048954  0.73219249  0.24462624     0.82700
O265        O  0.71252651  0.67053117  0.27278264    -0.79500
O266        O  0.77737246  0.74535650  0.33951902    -0.81000
O267        O  0.73379385  0.82849422  0.26658084    -0.80800
O268        O  0.71337287  0.78729784  0.20002093    -0.79400
Zn269      Zn  0.75804580  0.72353981  0.22705484     1.55700
O270        O  0.77806186  0.81435175  0.29546651    -0.80800
Cd271      Cd  0.71534018  0.78456193  0.25031757     1.59700
Cd272      Cd  0.71422857  0.71710431  0.29359759     1.59600
O273        O  0.66830733  0.78093677  0.26779065    -0.80800
O274        O  0.74223483  0.74664401  0.26563487    -1.91300
Cd275      Cd  0.78012848  0.76322380  0.29200300     1.59900
O276        O  0.66636965  0.73578542  0.29809937    -0.80700
O277        O  0.82480268  0.74795917  0.27103641    -0.79400
C278        C  0.72534528  0.65910820  0.24664842     0.83100
C279        C  0.72569345  0.76962724  0.17749647     0.82800
O280        O  0.80725327  0.72225803  0.22659663    -0.78300
C281        C  0.75826457  0.83593683  0.28416951     0.83600
O282        O  0.74266126  0.67705969  0.22801403    -0.78400
C283        C  0.65267351  0.76147776  0.28634553     0.83700
C284        C  0.75803378  0.72622350  0.35475595     0.84100
O285        O  0.73362376  0.71299628  0.34064235    -0.80900
O286        O  0.26936028  0.78089458  0.18471026    -0.78400
C287        C  0.22452546  0.83099145  0.26693955     0.82700
O288        O  0.31812245  0.73205191  0.28100749    -0.79500
O289        O  0.20869178  0.74232236  0.32382295    -0.81000
O290        O  0.17509632  0.71574076  0.21235423    -0.80800
O291        O  0.24107670  0.73810471  0.16703172    -0.79400
Zn292      Zn  0.26852610  0.77991824  0.23392576     1.55700
O293        O  0.16124135  0.74393443  0.25703750    -0.80800
Cd294      Cd  0.22620611  0.71693814  0.21122088     1.59700
Cd295      Cd  0.27120071  0.71292250  0.27793561     1.59600
O296        O  0.24358454  0.66880223  0.21281985    -0.80800
O297        O  0.24338556  0.74238273  0.24952766    -1.91300
Cd298      Cd  0.20566261  0.75878331  0.27618345     1.59900
O299        O  0.27444025  0.66585388  0.25769405    -0.80700
O300        O  0.20581057  0.80921556  0.27887417    -0.79400
C301        C  0.33131080  0.75768756  0.26908133     0.83100
C302        C  0.25794409  0.76371060  0.16145815     0.82800
O303        O  0.24898106  0.82347467  0.24897477    -0.78300
C304        C  0.15353182  0.72699814  0.23212020     0.83600
O305        O  0.31518936  0.77734032  0.25080340    -0.78400
C306        C  0.26225704  0.65270358  0.23216736     0.83700
C307        C  0.22821318  0.72392342  0.33987237     0.84100
O308        O  0.25296180  0.71042197  0.32601973    -0.80900
O309        O  0.71743155  0.21164880  0.18001242    -0.78400
C310        C  0.76476802  0.16045360  0.26145283     0.82700
O311        O  0.66770243  0.25689955  0.27847862    -0.79500
O312        O  0.78061811  0.25029961  0.31975666    -0.81000
O313        O  0.80779032  0.27589016  0.20583568    -0.80800
O314        O  0.73988006  0.25867966  0.16498315    -0.79400
Zn315      Zn  0.71884269  0.21124183  0.22990234     1.55700
O316        O  0.82532015  0.24858379  0.24971410    -0.80800
Cd317      Cd  0.75734859  0.27607289  0.20913627     1.59700
Cd318      Cd  0.71452638  0.27653300  0.27652240     1.59600
O319        O  0.74105362  0.32378517  0.21391571    -0.80800
O320        O  0.74277644  0.24874958  0.24689841    -1.91300
Cd321      Cd  0.78212679  0.23319606  0.27184851     1.59900
O322        O  0.71036777  0.32449757  0.25884965    -0.80700
O323        O  0.78358709  0.18235489  0.27298307    -0.79400
C324        C  0.65512610  0.23206233  0.26450325     0.83100
C325        C  0.72550398  0.23211594  0.15784492     0.82800
O326        O  0.73916945  0.16800480  0.24515874    -0.78300
C327        C  0.83092882  0.26437333  0.22338441     0.83600
O328        O  0.67209390  0.21338554  0.24598965    -0.78400
C329        C  0.72250781  0.33898342  0.23400149     0.83700
C330        C  0.76037072  0.26744571  0.33651233     0.84100
O331        O  0.73404357  0.27868258  0.32374976    -0.80900
N332        N  0.99794412  0.99788723  0.54990845    -0.36500
N333        N  0.04546778  0.00171993  0.49786333    -0.57000
N334        N  0.99223916  0.00538454  0.45030824    -0.36500
N335        N  0.94477468  0.99819347  0.50272091    -0.57000
C336        C  0.02589329  0.99118715  0.56637035     0.27100
C337        C  0.97276505  0.98800646  0.56887639     0.27100
C338        C  0.01816839  0.00023944  0.43022743     0.27100
C339        C  0.96476968  0.00009192  0.43270143     0.27100
C340        C  0.06525967  0.00799312  0.52348424     0.35700
C341        C  0.06247244  0.00968817  0.47070927     0.35700
C342        C  0.92708191  0.00037572  0.53059216     0.35700
C343        C  0.92389886  0.00478598  0.47794334     0.35700
C344        C  0.01838512  0.97662524  0.59606340    -0.21800
C345        C  0.98480464  0.97472414  0.59769025    -0.21800
C346        C  0.00703628  0.99210687  0.39935315    -0.21800
C347        C  0.97345252  0.99264396  0.40073310    -0.21800
C348        C  0.09490163  0.02019255  0.51252879    -0.22800
C349        C  0.09323511  0.02096714  0.47904079    -0.22800
C350        C  0.89477302  0.00808712  0.52349992    -0.22800
C351        C  0.89265106  0.01045573  0.49018183    -0.22800
C352        C  0.05768161  0.00043103  0.55634573    -0.18200
C353        C  0.93924514  0.99351857  0.56219625    -0.18200
C354        C  0.93212675  0.00310748  0.44438178    -0.18200
C355        C  0.05151896  0.00458355  0.43844050    -0.18200
H356        H  0.03530624  0.96886583  0.61491629     0.14700
H357        H  0.97079081  0.96524109  0.61803545     0.14700
H358        H  0.02151831  0.98688709  0.37778720     0.14700
H359        H  0.95745367  0.98818493  0.38024842     0.14700
H360        H  0.11573981  0.02735717  0.52705674     0.13000
H361        H  0.11247734  0.02882689  0.46265795     0.13000
H362        H  0.87461224  0.01109133  0.54045012     0.13000
H363        H  0.87040761  0.01538880  0.47671218     0.13000
H364        H  0.99597948  0.01251623  0.52919399     0.26300
H365        H  0.99314316  0.01508958  0.47370133     0.26300
C366        C  0.19333491  0.02322854  0.30418896     0.03200
C367        C  0.16700532  0.02495055  0.32632806    -0.12900
C368        C  0.15049853  0.99675450  0.33644329     0.00800
C369        C  0.16101645  0.96631784  0.32432146    -0.11400
C370        C  0.18888834  0.96350308  0.30421585     0.03200
C371        C  0.20460855  0.99226373  0.29364859    -0.10800
H372        H  0.15942853  0.04853493  0.33583046     0.08800
H373        H  0.14766877  0.94450632  0.33103498     0.06400
H374        H  0.22595579  0.99053457  0.27798935     0.06200
O375        O  0.23775756  0.24531690  0.15515188    -0.78400
C376        C  0.15285986  0.25139144  0.22155368     0.82700
O377        O  0.27420013  0.31603707  0.23874851    -0.79500
O378        O  0.21263366  0.24695755  0.31142321    -0.81000
O379        O  0.24996764  0.15815023  0.23800419    -0.80800
O380        O  0.26544863  0.19987594  0.16803036    -0.79400
Zn381      Zn  0.22345111  0.26475058  0.19866223     1.55700
O382        O  0.21172199  0.17548131  0.27301772    -0.80800
Cd383      Cd  0.26772059  0.20169711  0.21857450     1.59700
Cd384      Cd  0.27357219  0.26991384  0.25991263     1.59600
O385        O  0.31654590  0.20407659  0.23232416    -0.80800
O386        O  0.24294354  0.24084728  0.23526706    -1.91300
Cd387      Cd  0.20790669  0.22557684  0.26588295     1.59900
O388        O  0.32084485  0.25017979  0.26077572    -0.80700
O389        O  0.16150251  0.23693899  0.24784538    -0.79400
C390        C  0.25764899  0.32918302  0.21573646     0.83100
C391        C  0.25351009  0.21953945  0.14683626     0.82800
O392        O  0.17383228  0.26232593  0.20119665    -0.78300
C393        C  0.22885973  0.15257786  0.26028944     0.83600
O394        O  0.23720515  0.31262820  0.19910144    -0.78400
C395        C  0.33354660  0.22401644  0.24903663     0.83700
C396        C  0.23354155  0.26606380  0.32418802     0.84100
O397        O  0.25803817  0.27652673  0.30798388    -0.80900
C398        C  0.02290484  0.28862245  0.18164741     0.03200
C399        C  0.02450683  0.31385070  0.15831961    -0.12900
C400        C  0.99591092  0.32932807  0.14683203     0.00800
C401        C  0.96560607  0.31952304  0.15948886    -0.11400
C402        C  0.96336084  0.29391158  0.18230167     0.03200
C403        C  0.99226614  0.27861657  0.19353380    -0.10800
H404        H  0.04818486  0.32138772  0.14913416     0.08800
H405        H  0.94350412  0.33227856  0.15196789     0.06400
H406        H  0.99099385  0.25872477  0.21101278     0.06200
C407        C  0.29445610  0.19212481  0.95561340     0.03200
C408        C  0.31926663  0.16810031  0.95540041    -0.12900
C409        C  0.32837202  0.15196931  0.98424131     0.00800
C410        C  0.31292402  0.16052633  0.01360720    -0.11400
C411        C  0.28820081  0.18463165  0.01453262     0.03200
C412        C  0.27915040  0.20058053  0.98533130    -0.10800
H413        H  0.33193654  0.16249365  0.93278546     0.08800
H414        H  0.32087880  0.14886094  0.03606680     0.06400
H415        H  0.26061824  0.21970081  0.98579825     0.06200
C416        C  0.52363448  0.19156358  0.29628647     0.03200
C417        C  0.52277307  0.16744656  0.32066880    -0.12900
C418        C  0.49322912  0.15254162  0.32944761     0.00800
C419        C  0.46409932  0.16310368  0.31450281    -0.11400
C420        C  0.46445594  0.18789342  0.29069644     0.03200
C421        C  0.49441852  0.20166612  0.28114157    -0.10800
H422        H  0.54522277  0.16061849  0.33306108     0.08800
H423        H  0.44101391  0.15229854  0.32167387     0.06400
H424        H  0.49495446  0.22037595  0.26235356     0.06200
C425        C  0.78915849  0.97027045  0.31467471     0.03200
C426        C  0.81102847  0.97239120  0.34098656    -0.12900
C427        C  0.82745240  0.00161348  0.34811156     0.00800
C428        C  0.82040699  0.02938024  0.32899546    -0.11400
C429        C  0.79632828  0.02886728  0.30450994     0.03200
C430        C  0.78122216  0.99889525  0.29694219    -0.10800
H431        H  0.81599893  0.95062634  0.35529682     0.08800
H432        H  0.83363632  0.05178456  0.33308495     0.06400
H433        H  0.76367847  0.99776467  0.27719134     0.06200
C434        C  0.69042023  0.20141327  0.96561630     0.03200
C435        C  0.66489951  0.17862239  0.96400353    -0.12900
C436        C  0.65213288  0.16409973  0.99234464     0.00800
C437        C  0.66404382  0.17419421  0.02283793    -0.11400
C438        C  0.68971687  0.19672075  0.02523448     0.03200
C439        C  0.70285887  0.21036768  0.99642314    -0.10800
H440        H  0.65501964  0.17218301  0.94035738     0.08800
H441        H  0.65354906  0.16419126  0.04496784     0.06400
H442        H  0.72321755  0.22708843  0.99801583     0.06200
C443        C  0.68680401  0.47176961  0.19767773     0.03200
C444        C  0.70001439  0.50031924  0.21114620    -0.12900
C445        C  0.69142031  0.53106686  0.19823227     0.00800
C446        C  0.66949725  0.53305906  0.17196809    -0.11400
C447        C  0.65541414  0.50477781  0.15884500     0.03200
C448        C  0.66408805  0.47415208  0.17211106    -0.10800
H449        H  0.71735667  0.49858375  0.23108382     0.08800
H450        H  0.66312631  0.55687363  0.16200645     0.06400
H451        H  0.65315269  0.45201363  0.16273389     0.06200
C452        C  0.80128820  0.30779839  0.46605486     0.03200
C453        C  0.78831639  0.29866853  0.49660521    -0.12900
C454        C  0.80141042  0.31181696  0.52545579     0.00800
C455        C  0.82640928  0.33502168  0.52355636    -0.11400
C456        C  0.83946027  0.34452379  0.49330952     0.03200
C457        C  0.82689003  0.33053916  0.46469050    -0.10800
H458        H  0.76904060  0.28065546  0.49796654     0.08800
H459        H  0.83596078  0.34541404  0.54590950     0.06400
H460        H  0.83744708  0.33674632  0.44120325     0.06200
C461        C  0.28937886  0.46252375  0.17970000     0.03200
C462        C  0.31340176  0.46409477  0.15517896    -0.12900
C463        C  0.33001569  0.49340279  0.14845674     0.00800
C464        C  0.32112997  0.52163052  0.16618979    -0.11400
C465        C  0.29533733  0.52123595  0.18891512     0.03200
C466        C  0.28012681  0.49132776  0.19632468    -0.10800
H467        H  0.31981777  0.44194074  0.14208878     0.08800
H468        H  0.33428308  0.54422739  0.16262155     0.06400
H469        H  0.26146508  0.49036957  0.21513727     0.06200
C470        C  0.02042238  0.69281193  0.19992472     0.03200
C471        C  0.99094212  0.70473184  0.21345966    -0.12900
C472        C  0.96081058  0.69080384  0.20443141     0.00800
C473        C  0.96062483  0.66486747  0.18180788    -0.11400
C474        C  0.98987980  0.65306981  0.16787540     0.03200
C475        C  0.01957969  0.66685883  0.17765779    -0.10800
H476        H  0.99146627  0.72528867  0.23010837     0.08800
H477        H  0.93753242  0.65397719  0.17500219     0.06400
H478        H  0.04238633  0.65767865  0.16748569     0.06200
C479        C  0.29694686  0.80971883  0.03328354     0.03200
C480        C  0.28559722  0.79781802  0.00312952    -0.12900
C481        C  0.30012697  0.80827370  0.97387310     0.00800
C482        C  0.32678089  0.82951201  0.97476300    -0.11400
C483        C  0.33828524  0.84213685  0.00439203     0.03200
C484        C  0.32301676  0.83213787  0.03353516    -0.10800
H485        H  0.26512032  0.78114989  0.00235135     0.08800
H486        H  0.33838297  0.83635665  0.95194736     0.06400
H487        H  0.33123709  0.84190636  0.05658955     0.06200
C488        C  0.45935061  0.79621039  0.31411081     0.03200
C489        C  0.45741272  0.82252650  0.33597220    -0.12900
C490        C  0.48545388  0.83370397  0.35196082     0.00800
C491        C  0.51585866  0.81935321  0.34450328    -0.11400
C492        C  0.51847801  0.79416271  0.32139824     0.03200
C493        C  0.48999403  0.78218096  0.30650667    -0.10800
H494        H  0.43398689  0.83440606  0.34014098     0.08800
H495        H  0.53783326  0.82841434  0.35610055     0.06400
H496        H  0.49169391  0.76271321  0.28862842     0.06200
C497        C  0.19921657  0.69403507  0.53485704     0.03200
C498        C  0.17562205  0.66917004  0.53514040    -0.12900
C499        C  0.16324557  0.65636667  0.50592297     0.00800
C500        C  0.17471986  0.66886334  0.47616745    -0.11400
C501        C  0.19927790  0.69258602  0.47517102     0.03200
C502        C  0.21176779  0.70508230  0.50464412    -0.10800
H503        H  0.16693024  0.65973269  0.55831882     0.08800
H504        H  0.16424546  0.66040249  0.45342910     0.06400
H505        H  0.23007923  0.72410685  0.50404634     0.06200
C506        C  0.70698405  0.81271910  0.98523901     0.03200
C507        C  0.68160960  0.83619911  0.98387953    -0.12900
C508        C  0.66237256  0.84370075  0.01143771     0.00800
C509        C  0.66878322  0.82655912  0.04051172    -0.11400
C510        C  0.69614171  0.80567655  0.04344444     0.03200
C511        C  0.71506108  0.79850691  0.01555195    -0.10800
H512        H  0.67667284  0.84844903  0.96093040     0.08800
H513        H  0.65282381  0.82941330  0.06134084     0.06400
H514        H  0.73641642  0.78275966  0.01749274     0.06200
C515        C  0.20192308  0.30679770  0.45592376     0.03200
C516        C  0.17593602  0.32946052  0.45775653    -0.12900
C517        C  0.16497110  0.34138734  0.48809393     0.00800
C518        C  0.18071666  0.33050743  0.51660207    -0.11400
C519        C  0.20625209  0.30733547  0.51525475     0.03200
C520        C  0.21699745  0.29566886  0.48476439    -0.10800
H521        H  0.16409452  0.33755649  0.43545756     0.08800
H522        H  0.17336283  0.34031287  0.54009862     0.06400
H523        H  0.23733469  0.27852719  0.48339700     0.06200
C524        C  0.97435367  0.31851133  0.79651374     0.03200
C525        C  0.97731399  0.33928252  0.82352565    -0.12900
C526        C  0.00676954  0.35510702  0.83053846     0.00800
C527        C  0.03479723  0.34617377  0.81246314    -0.11400
C528        C  0.03353158  0.32183823  0.78824161     0.03200
C529        C  0.00284751  0.30890314  0.77941317    -0.10800
H530        H  0.95620388  0.34292817  0.83898773     0.08800
H531        H  0.05807235  0.35748887  0.81768850     0.06400
H532        H  0.00109301  0.29193121  0.75921786     0.06200
C533        C  0.19410770  0.03772054  0.69083004     0.03200
C534        C  0.20654531  0.00872024  0.70495687    -0.12900
C535        C  0.19681715  0.97789075  0.69309169     0.00800
C536        C  0.17412511  0.97665924  0.66728087    -0.11400
C537        C  0.16128497  0.00536270  0.65324997     0.03200
C538        C  0.17171385  0.03575960  0.66501154    -0.10800
H539        H  0.22264069  0.01036264  0.72581805     0.08800
H540        H  0.16568383  0.95311481  0.65872691     0.06400
H541        H  0.16227957  0.05811490  0.65409094     0.06200
C542        C  0.53613601  0.20909678  0.68411645     0.03200
C543        C  0.53845460  0.18738912  0.65773451    -0.12900
C544        C  0.51047743  0.17216253  0.64532856     0.00800
C545        C  0.47987576  0.17951226  0.65934551    -0.11400
C546        C  0.47693370  0.20148276  0.68561506     0.03200
C547        C  0.50540570  0.21613823  0.69806397    -0.10800
H548        H  0.56227014  0.18201818  0.64719826     0.08800
H549        H  0.45817141  0.16787542  0.64990425     0.06400
H550        H  0.50373688  0.23281385  0.71856662     0.06200
C551        C  0.31133095  0.47755096  0.79112695     0.03200
C552        C  0.33271245  0.47674055  0.81788729    -0.12900
C553        C  0.34885394  0.50504998  0.82852881     0.00800
C554        C  0.34034912  0.53508901  0.81372281    -0.11400
C555        C  0.31627365  0.53670117  0.78936497     0.03200
C556        C  0.30253568  0.50780775  0.77731630    -0.10800
H557        H  0.33686557  0.45351840  0.82997107     0.08800
H558        H  0.35196511  0.55757036  0.82118738     0.06400
H559        H  0.28581429  0.50898230  0.75686359     0.06200
C560        C  0.81475322  0.98075403  0.71293255     0.03200
C561        C  0.83667972  0.97815144  0.68660881    -0.12900
C562        C  0.84641752  0.00573297  0.66895045     0.00800
C563        C  0.83302276  0.03637827  0.67721131    -0.11400
C564        C  0.81054618  0.03971680  0.70311966     0.03200
C565        C  0.80160382  0.01167956  0.72111158    -0.10800
H566        H  0.84640429  0.95433222  0.67988907     0.08800
H567        H  0.84013865  0.05782246  0.66342488     0.06400
H568        H  0.78442131  0.01387875  0.74120224     0.06200
C569        C  0.98029914  0.70601088  0.81395382     0.03200
C570        C  0.98209730  0.68027572  0.83675050    -0.12900
C571        C  0.01224670  0.67013635  0.84988095     0.00800
C572        C  0.04092171  0.68471111  0.83819585    -0.11400
C573        C  0.03977436  0.70984887  0.81472897     0.03200
C574        C  0.00925310  0.72093367  0.80319819    -0.10800
H575        H  0.95974069  0.66850698  0.84458774     0.08800
H576        H  0.06439433  0.67676501  0.84775760     0.06400
H577        H  0.00804944  0.74176841  0.78685340     0.06200
C578        C  0.47889864  0.81464376  0.70358904     0.03200
C579        C  0.47929761  0.83710478  0.67771733    -0.12900
C580        C  0.50858286  0.85190702  0.66744399     0.00800
C581        C  0.53782562  0.84277230  0.68339334    -0.11400
C582        C  0.53819380  0.81794072  0.70716228     0.03200
C583        C  0.50850716  0.80441308  0.71787074    -0.10800
H584        H  0.45634993  0.84292682  0.66577833     0.08800
H585        H  0.56068307  0.85450718  0.67734218     0.06400
H586        H  0.50847578  0.78591739  0.73687355     0.06200
C587        C  0.69967877  0.48238810  0.80762631     0.03200
C588        C  0.71444913  0.51195555  0.79816526    -0.12900
C589        C  0.70503126  0.54141111  0.81327838     0.00800
C590        C  0.68099288  0.54127268  0.83761069    -0.11400
C591        C  0.66472488  0.51241005  0.84588761     0.03200
C592        C  0.67440630  0.48294586  0.83095715    -0.10800
H593        H  0.73301588  0.51202291  0.77921733     0.08800
H594        H  0.67450834  0.56406710  0.84960100     0.06400
H595        H  0.66227748  0.46033607  0.83742870     0.06200
C596        C  0.79822112  0.69192558  0.48557762     0.03200
C597        C  0.82315265  0.66824870  0.48410154    -0.12900
C598        C  0.84283275  0.66116466  0.51130952     0.00800
C599        C  0.83559199  0.67683116  0.54111539    -0.11400
C600        C  0.80904097  0.69881513  0.54385270     0.03200
C601        C  0.79102467  0.70710929  0.51562023    -0.10800
H602        H  0.82736862  0.65562645  0.46124350     0.08800
H603        H  0.85018073  0.67153946  0.56256041     0.06400
H604        H  0.77143503  0.72510459  0.51705106     0.06200
C605        C  0.21284591  0.25441953  0.38022782    -0.26200
C606        C  0.22876688  0.27610339  0.35881549    -0.14300
C607        C  0.23791959  0.30735752  0.37045876     0.36400
C608        C  0.22940013  0.31661655  0.40254667    -0.25600
C609        C  0.21300413  0.29502296  0.42351464    -0.14900
C610        C  0.20521279  0.26341768  0.41233637     0.37400
N611        N  0.18859866  0.24036496  0.43276722    -0.89100
H612        H  0.20595795  0.23028331  0.37184901     0.18600
H613        H  0.23528447  0.34091763  0.41122087     0.18500
N614        N  0.25446531  0.33010887  0.34941572    -0.88200
H615        H  0.16651883  0.25090983  0.44056060     0.35900
H616        H  0.20311138  0.23568126  0.45326486     0.41000
H617        H  0.27815753  0.32103209  0.34553569     0.40600
H618        H  0.25723788  0.35268175  0.36106711     0.35500
C619        C  0.25583846  0.37594062  0.17613931    -0.26200
C620        C  0.26272124  0.36444446  0.20782529    -0.14300
C621        C  0.27527925  0.38666223  0.23113699     0.36400
C622        C  0.28211636  0.41909135  0.22176632    -0.25600
C623        C  0.27672969  0.42995864  0.18970324    -0.14900
C624        C  0.26291144  0.40829120  0.16690852     0.37400
N625        N  0.25629787  0.41901990  0.13423500    -0.89100
H626        H  0.24590017  0.35947427  0.15803199     0.18600
H627        H  0.29285023  0.43569050  0.23928845     0.18500
N628        N  0.28132875  0.37625927  0.26417329    -0.88200
H629        H  0.23132864  0.41588207  0.12974739     0.35900
H630        H  0.26934612  0.40384609  0.11819878     0.41000
H631        H  0.25872814  0.37062259  0.27472358     0.40600
H632        H  0.29108598  0.39535373  0.27796123     0.35500
C633        C  0.38719884  0.23780733  0.27520294    -0.26200
C634        C  0.36866383  0.21605247  0.25614848    -0.14300
C635        C  0.38353420  0.18618309  0.24616105     0.36400
C636        C  0.41533691  0.17815284  0.25662460    -0.25600
C637        C  0.43305374  0.19938320  0.27658189    -0.14900
C638        C  0.41898129  0.22975567  0.28550295     0.37400
N639        N  0.43586569  0.25223635  0.30620070    -0.89100
H640        H  0.37663978  0.26089932  0.28310333     0.18600
H641        H  0.42599555  0.15475782  0.24973678     0.18500
N642        N  0.36636054  0.16343988  0.22601250    -0.88200
H643        H  0.45763603  0.25898684  0.29465774     0.35900
H644        H  0.44169626  0.24028391  0.32806213     0.41000
H645        H  0.36484934  0.14119310  0.23858314     0.40600
H646        H  0.38017026  0.15953519  0.20481251     0.35500
C647        C  0.27374994  0.22717492  0.05619992    -0.26200
C648        C  0.27391161  0.19413415  0.04668915    -0.14300
C649        C  0.26389377  0.17007142  0.06936818     0.36400
C650        C  0.25676428  0.17915370  0.10169670    -0.25600
C651        C  0.25836835  0.21191426  0.11173969    -0.14900
C652        C  0.26608298  0.23635401  0.08852955     0.37400
N653        N  0.26762200  0.27014122  0.09816101    -0.89100
H654        H  0.28138055  0.24568829  0.03886082     0.18600
H655        H  0.25011320  0.16048032  0.11928660     0.18500
N656        N  0.26145496  0.13639551  0.05953900    -0.88200
H657        H  0.27344540  0.28496131  0.07815116     0.35900
H658        H  0.28686464  0.27238202  0.11478706     0.41000
H659        H  0.24311397  0.13506136  0.04182053     0.40600
H660        H  0.25392109  0.12178054  0.07910535     0.35500
C661        C  0.10609611  0.24686836  0.18326441    -0.26200
C662        C  0.11765873  0.25611654  0.21413015    -0.14300
C663        C  0.09607705  0.27233082  0.23597250     0.36400
C664        C  0.06447632  0.28117160  0.22557489    -0.25600
C665        C  0.05375772  0.27372679  0.19390336    -0.14900
C666        C  0.07433182  0.25506994  0.17317453     0.37400
N667        N  0.06352136  0.24413660  0.14179311    -0.89100
H668        H  0.12212000  0.23370404  0.16661692     0.18600
H669        H  0.04874297  0.29521381  0.24177608     0.18500
N670        N  0.10615192  0.28163684  0.26811465    -0.88200
H671        H  0.05791420  0.26449118  0.12732332     0.35900
H672        H  0.04218251  0.23054274  0.14510491     0.41000
H673        H  0.12686577  0.29637702  0.26611921     0.40600
H674        H  0.11246548  0.26045177  0.28108363     0.35500
C675        C  0.21423570  0.07927735  0.31548525    -0.26200
C676        C  0.20823994  0.05440136  0.29262660    -0.14300
C677        C  0.21247617  0.06132263  0.25909778     0.36400
C678        C  0.22079424  0.09316544  0.24906191    -0.25600
C679        C  0.22390562  0.11859221  0.27186709    -0.14900
C680        C  0.22141984  0.11135515  0.30553854     0.37400
N681        N  0.22648777  0.13644477  0.32958514    -0.89100
H682        H  0.21188025  0.07396346  0.34132447     0.18600
H683        H  0.22308218  0.09841343  0.22319822     0.18500
N684        N  0.20660374  0.03665883  0.23504685    -0.88200
H685        H  0.22672370  0.12636581  0.35308421     0.35900
H686        H  0.20624600  0.15224666  0.32892554     0.41000
H687        H  0.22792475  0.03375531  0.22112913     0.40600
H688        H  0.18801339  0.04507870  0.21957154     0.35500
C689        C  0.88601938  0.03087568  0.41490763    -0.26200
C690        C  0.90491905  0.00258917  0.42024627    -0.14300
C691        C  0.89721275  0.97372841  0.40346674     0.36400
C692        C  0.87261256  0.97418281  0.37974568    -0.25600
C693        C  0.85325273  0.00238682  0.37414342    -0.14900
C694        C  0.85925398  0.03066714  0.39333405     0.37400
N695        N  0.83769840  0.05864052  0.39182484    -0.89100
H696        H  0.89145514  0.05281650  0.42864996     0.18600
H697        H  0.86903819  0.95216366  0.36559404     0.18500
N698        N  0.91450772  0.94386465  0.41044505    -0.88200
H699        H  0.84555533  0.07710543  0.40756773     0.35900
H700        H  0.81473601  0.05125053  0.40024876     0.41000
H701        H  0.89743829  0.92651292  0.41808938     0.40600
H702        H  0.92520849  0.93542550  0.38878036     0.35500
C703        C  0.07680528  0.02585491  0.38687493    -0.26200
C704        C  0.07654426  0.00246167  0.41197280    -0.14300
C705        C  0.09954134  0.97666095  0.41144532     0.36400
C706        C  0.12321789  0.97528116  0.38668217    -0.25600
C707        C  0.12384018  0.99870212  0.36143884    -0.14900
C708        C  0.09967687  0.02384543  0.36116408     0.37400
N709        N  0.09792816  0.04679111  0.33454478    -0.89100
H710        H  0.05866891  0.04537424  0.38710254     0.18600
H711        H  0.14143961  0.95586728  0.38750146     0.18500
N712        N  0.09867112  0.95161371  0.43596527    -0.88200
H713        H  0.07881497  0.06359415  0.33813869     0.35900
H714        H  0.09230944  0.03362954  0.31342782     0.41000
H715        H  0.12132491  0.95113093  0.44780856     0.40600
H716        H  0.09561257  0.92910921  0.42427600     0.35500
C717        C  0.91926578  0.01997998  0.61277913    -0.26200
C718        C  0.91607440  0.99438858  0.59027682    -0.14300
C719        C  0.89050027  0.97152964  0.59432079     0.36400
C720        C  0.86778112  0.97611448  0.61966527    -0.25600
C721        C  0.87063821  0.00217940  0.64193102    -0.14900
C722        C  0.89728727  0.02368991  0.63880215     0.37400
N723        N  0.90275408  0.04878579  0.66251666    -0.89100
H724        H  0.93912509  0.03723882  0.61013454     0.18600
H725        H  0.84774244  0.95904514  0.62196144     0.18500
N726        N  0.88714234  0.94325895  0.57373673    -0.88200
H727        H  0.90292774  0.07133723  0.65039184     0.35900
H728        H  0.92591631  0.04493899  0.67272116     0.41000
H729        H  0.90633470  0.94121015  0.55698209     0.40600
H730        H  0.86552551  0.94611173  0.56036580     0.35500
C731        C  0.10718768  0.02360540  0.63138156    -0.26200
C732        C  0.13528624  0.00380666  0.62788306    -0.14300
C733        C  0.13782431  0.98287968  0.60054762     0.36400
C734        C  0.11215214  0.98164406  0.57781594    -0.25600
C735        C  0.08423145  0.00164274  0.58130177    -0.14900
C736        C  0.08192997  0.02291017  0.60827454     0.37400
N737        N  0.05404617  0.04407808  0.61209665    -0.89100
H738        H  0.10470049  0.03967075  0.65230014     0.18600
H739        H  0.11421394  0.96531869  0.55705485     0.18500
N740        N  0.16677832  0.96357585  0.59522744    -0.88200
H741        H  0.04308523  0.03880428  0.63458783     0.35900
H742        H  0.06231170  0.06821894  0.61284067     0.41000
H743        H  0.17663896  0.97013366  0.57257346     0.40600
H744        H  0.15995306  0.93899041  0.59400753     0.35500
C745        C  0.79966864  0.26584216  0.38330600    -0.26200
C746        C  0.76857398  0.27500447  0.37141885    -0.14300
C747        C  0.74688821  0.29197689  0.39276906     0.36400
C748        C  0.75767220  0.30109130  0.42420282    -0.25600
C749        C  0.78930040  0.29316955  0.43514114    -0.14900
C750        C  0.81011357  0.27423412  0.41477319     0.37400
N751        N  0.84213057  0.26333168  0.42493483    -0.89100
H752        H  0.81652951  0.25228239  0.36785490     0.18600
H753        H  0.74164697  0.31532575  0.43994545     0.18500
N754        N  0.71425860  0.30042684  0.38249476    -0.88200
H755        H  0.84240098  0.23774906  0.42402687     0.35900
H756        H  0.84679209  0.26926458  0.44924718     0.41000
H757        H  0.70199264  0.31367031  0.40069199     0.40600
H758        H  0.70142503  0.27857426  0.37965862     0.35500
C759        C  0.72997494  0.38954237  0.20050297    -0.26200
C760        C  0.71463040  0.37416151  0.22724453    -0.14300
C761        C  0.69124515  0.39231819  0.24552941     0.36400
C762        C  0.68315103  0.42458550  0.23619039    -0.25600
C763        C  0.69782022  0.43909118  0.20885627    -0.14900
C764        C  0.72168490  0.42144710  0.19111411     0.37400
N765        N  0.73763190  0.43529933  0.16316858    -0.89100
H766        H  0.74818119  0.37651411  0.18614940     0.18600
H767        H  0.66474064  0.43807804  0.24986841     0.18500
N768        N  0.67509166  0.37806426  0.27311563    -0.88200
H769        H  0.74907045  0.45692178  0.17035696     0.35900
H770        H  0.71988237  0.44112701  0.14570222     0.41000
H771        H  0.64988043  0.37858000  0.26871792     0.40600
H772        H  0.67967552  0.39270852  0.29349625     0.35500
C773        C  0.72094471  0.19160315  0.11285106    -0.26200
C774        C  0.71839642  0.22432358  0.12303779    -0.14300
C775        C  0.70886589  0.24841950  0.09980718     0.36400
C776        C  0.70054372  0.23900307  0.06790200    -0.25600
C777        C  0.70201692  0.20606207  0.05817078    -0.14900
C778        C  0.71352743  0.18234662  0.08080829     0.37400
N779        N  0.71934080  0.14892746  0.07167871    -0.89100
H780        H  0.72920043  0.17297023  0.12990661     0.18600
H781        H  0.69210552  0.25749179  0.05078217     0.18500
N782        N  0.70626999  0.28241371  0.10806217    -0.88200
H783        H  0.73467175  0.14855738  0.05118890     0.35900
H784        H  0.69727641  0.13778973  0.06576878     0.41000
H785        H  0.72943433  0.29087742  0.11451808     0.40600
H786        H  0.69045262  0.28492805  0.12803395     0.35500
C787        C  0.74742997  0.10347289  0.27521836    -0.26200
C788        C  0.77270759  0.12540889  0.26779373    -0.14300
C789        C  0.80543932  0.11403171  0.26836017     0.36400
C790        C  0.81225723  0.08164901  0.27807402    -0.25600
C791        C  0.78721379  0.06034898  0.28799321    -0.14900
C792        C  0.75431135  0.07126677  0.28587616     0.37400
N793        N  0.72809329  0.05032145  0.29611347    -0.89100
H794        H  0.72227764  0.11210311  0.27460211     0.18600
H795        H  0.83748182  0.07326478  0.27893448     0.18500
N796        N  0.83170320  0.13552384  0.25942598    -0.88200
H797        H  0.70543898  0.06197096  0.29285943     0.35900
H798        H  0.73065696  0.04629439  0.32121379     0.41000
H799        H  0.82881113  0.14148686  0.23474306     0.40600
H800        H  0.85432087  0.12352340  0.26149294     0.35500
C801        C  0.60488791  0.23566613  0.29923023    -0.26200
C802        C  0.62007849  0.22426207  0.27050618    -0.14300
C803        C  0.60184763  0.20471369  0.24862994     0.36400
C804        C  0.56984580  0.19534499  0.25705417    -0.25600
C805        C  0.55554969  0.20537604  0.28654931    -0.14900
C806        C  0.57288747  0.22627636  0.30755389     0.37400
N807        N  0.55786491  0.23801307  0.33715499    -0.89100
H808        H  0.61840381  0.25106821  0.31587194     0.18600
H809        H  0.55621561  0.17949275  0.24091732     0.18500
N810        N  0.61580686  0.19437259  0.21801840    -0.88200
H811        H  0.57335980  0.25427679  0.34914852     0.35900
H812        H  0.55493646  0.21804891  0.35285815     0.41000
H813        H  0.61958840  0.21536156  0.20388387     0.40600
H814        H  0.59933580  0.17986961  0.20508185     0.35500
C815        C  0.90573899  0.27886298  0.17006095    -0.26200
C816        C  0.93036850  0.28344807  0.19347714    -0.14300
C817        C  0.92239508  0.28024626  0.22685495     0.36400
C818        C  0.89009799  0.27291997  0.23618103    -0.25600
C819        C  0.86524159  0.26964001  0.21274495    -0.14900
C820        C  0.87341737  0.27225621  0.17932366     0.37400
N821        N  0.84904848  0.26796276  0.15459971    -0.89100
H822        H  0.91153256  0.28087421  0.14428178     0.18600
H823        H  0.88421152  0.27109866  0.26194298     0.18500
N824        N  0.94658370  0.28596746  0.25140540    -0.88200
H825        H  0.85655251  0.24870690  0.13945891     0.35900
H826        H  0.84801131  0.28930637  0.14048214     0.41000
H827        H  0.94847141  0.26493459  0.26589111     0.40600
H828        H  0.93830521  0.30517922  0.26620289     0.35500
C829        C  0.24570616  0.70292465  0.39521710    -0.26200
C830        C  0.22179182  0.71832307  0.37552220    -0.14300
C831        C  0.19182852  0.72801107  0.39037406     0.36400
C832        C  0.18613020  0.72131142  0.42350991    -0.25600
C833        C  0.20950016  0.70501349  0.44265146    -0.14900
C834        C  0.23973063  0.69617823  0.42851100     0.37400
N835        N  0.26387742  0.67921452  0.44754479    -0.89100
H836        H  0.26895926  0.69551559  0.38467480     0.18600
H837        H  0.16260998  0.72779509  0.43411962     0.18500
N838        N  0.16645813  0.74373302  0.37183521    -0.88200
H839        H  0.28531687  0.69301348  0.44716458     0.35900
H840        H  0.26888712  0.65678792  0.43622699     0.41000
H841        H  0.16111482  0.76628501  0.38276057     0.40600
H842        H  0.14548706  0.72927929  0.37317374     0.35500
C843        C  0.37900513  0.75159988  0.30665865    -0.26200
C844        C  0.36580669  0.76538733  0.27797610    -0.14300
C845        C  0.38512609  0.78751968  0.25961633     0.36400
C846        C  0.41633606  0.79629590  0.27113292    -0.25600
C847        C  0.42868895  0.78327866  0.30033078    -0.14900
C848        C  0.41001880  0.76062560  0.31818866     0.37400
N849        N  0.42244824  0.74734298  0.34831879    -0.89100
H850        H  0.36453397  0.73468667  0.32096411     0.18600
H851        H  0.43081445  0.81392932  0.25771665     0.18500
N852        N  0.37300797  0.80121709  0.22956553    -0.88200
H853        H  0.40596399  0.73058391  0.35826154     0.35900
H854        H  0.42407517  0.76654800  0.36507499     0.41000
H855        H  0.37063417  0.78199829  0.21292585     0.40600
H856        H  0.38999266  0.81739207  0.21947850     0.35500
C857        C  0.26702333  0.80837869  0.12133401    -0.26200
C858        C  0.26442213  0.77463477  0.12738210    -0.14300
C859        C  0.26903078  0.75249323  0.10122397     0.36400
C860        C  0.27817713  0.76456662  0.07023711    -0.25600
C861        C  0.28252037  0.79826669  0.06477161    -0.14900
C862        C  0.27527022  0.82044268  0.09028094     0.37400
N863        N  0.27625291  0.85517270  0.08455266    -0.89100
H864        H  0.26247841  0.82554140  0.14102573     0.18600
H865        H  0.28334842  0.74746258  0.05065746     0.18500
N866        N  0.26560928  0.71786888  0.10637896    -0.88200
H867        H  0.27033777  0.86808994  0.10581988     0.35900
H868        H  0.25810473  0.86084902  0.06742892     0.41000
H869        H  0.28421974  0.71034625  0.12227426     0.40600
H870        H  0.26930073  0.70510087  0.08454170     0.35500
C871        C  0.10643084  0.72688230  0.19416769    -0.26200
C872        C  0.11849090  0.72038380  0.22562934    -0.14300
C873        C  0.09687391  0.70744759  0.24961877     0.36400
C874        C  0.06421711  0.70100494  0.24112941    -0.25600
C875        C  0.05275230  0.70616468  0.20927674    -0.14900
C876        C  0.07397886  0.72010082  0.18582029     0.37400
N877        N  0.06307640  0.72820152  0.15351519    -0.89100
H878        H  0.12246619  0.73727045  0.17580432     0.18600
H879        H  0.04813863  0.69009214  0.25914477     0.18500
N880        N  0.10719487  0.69905590  0.28220968    -0.88200
H881        H  0.04252623  0.74352193  0.15544796     0.35900
H882        H  0.05635009  0.70688209  0.14133223     0.41000
H883        H  0.13223315  0.70221763  0.28554072     0.40600
H884        H  0.10321872  0.67400995  0.28547985     0.35500
C885        C  0.24695084  0.59915029  0.20710287    -0.26200
C886        C  0.27004933  0.61780148  0.22425998    -0.14300
C887        C  0.30063787  0.60324912  0.23208956     0.36400
C888        C  0.30753783  0.57090293  0.22200751    -0.25600
C889        C  0.28471932  0.55269477  0.20414572    -0.14900
C890        C  0.25389557  0.56700259  0.19707920     0.37400
N891        N  0.22973356  0.55006331  0.17842342    -0.89100
H892        H  0.22338344  0.60983455  0.20091907     0.18600
H893        H  0.33137356  0.56019377  0.22702508     0.18500
N894        N  0.32515474  0.62172149  0.24896114    -0.88200
H895        H  0.22309375  0.52890456  0.19108775     0.35900
H896        H  0.24004630  0.54328032  0.15601137     0.41000
H897        H  0.33231909  0.64082367  0.23354781     0.40600
H898        H  0.34606105  0.60736034  0.25306906     0.35500
C899        C  0.20998658  0.92335050  0.26236616    -0.26200
C900        C  0.20128379  0.93024235  0.29495327    -0.14300
C901        C  0.20303055  0.90473890  0.31837899     0.36400
C902        C  0.21052686  0.87274121  0.30830981    -0.25600
C903        C  0.21801232  0.86561606  0.27567157    -0.14900
C904        C  0.21856309  0.89126893  0.25251398     0.37400
N905        N  0.22678860  0.88452418  0.21902353    -0.89100
H906        H  0.20901291  0.94278276  0.24434188     0.18600
H907        H  0.21097472  0.85316562  0.32622726     0.18500
N908        N  0.19744577  0.91144884  0.35243558    -0.88200
H909        H  0.22618498  0.90606440  0.20518431     0.35900
H910        H  0.20865629  0.86933053  0.20957331     0.41000
H911        H  0.21598428  0.92706719  0.36027195     0.40600
H912        H  0.19952463  0.89005818  0.36637216     0.35500
C913        C  0.78647135  0.73399450  0.44309010    -0.26200
C914        C  0.78208654  0.70198327  0.45461126    -0.14300
C915        C  0.76718639  0.67877813  0.43410369     0.36400
C916        C  0.75815716  0.68750393  0.40211871    -0.25600
C917        C  0.76443913  0.71896753  0.38980993    -0.14900
C918        C  0.77792346  0.74274084  0.41089208     0.37400
N919        N  0.78330219  0.77555300  0.39941828    -0.89100
H920        H  0.79812995  0.75178639  0.45874724     0.18600
H921        H  0.74754524  0.66911686  0.38639779     0.18500
N922        N  0.76195473  0.64605024  0.44549496    -0.88200
H923        H  0.79368179  0.78986764  0.41777608     0.35900
H924        H  0.76041406  0.78595117  0.39423508     0.41000
H925        H  0.77446405  0.63000320  0.42987986     0.40600
H926        H  0.73694731  0.64111283  0.44374782     0.35500
C927        C  0.72963871  0.61466424  0.20516826    -0.26200
C928        C  0.71958066  0.62452065  0.23662812    -0.14300
C929        C  0.70332363  0.60154945  0.25686417     0.36400
C930        C  0.69578096  0.57038242  0.24436814    -0.25600
C931        C  0.70428458  0.56164838  0.21234320    -0.14900
C932        C  0.72206736  0.58366310  0.19296094     0.37400
N933        N  0.73211220  0.57469426  0.16060892    -0.89100
H934        H  0.74266652  0.63140562  0.18933882     0.18600
H935        H  0.68218793  0.55321786  0.25925107     0.18500
N936        N  0.69400833  0.60993094  0.28970052    -0.88200
H937        H  0.75760715  0.57646229  0.15930014     0.35900
H938        H  0.72205084  0.59168550  0.14425665     0.41000
H939        H  0.71553601  0.61299195  0.30308514     0.40600
H940        H  0.68145085  0.59063698  0.30075749     0.35500
C941        C  0.71570903  0.75418720  0.11920506    -0.26200
C942        C  0.71985216  0.77885337  0.14279755    -0.14300
C943        C  0.71808856  0.81203741  0.13269281     0.36400
C944        C  0.71162417  0.81963472  0.10004824    -0.25600
C945        C  0.70633337  0.79511466  0.07672480    -0.14900
C946        C  0.70866053  0.76194020  0.08646816     0.37400
N947        N  0.70256598  0.73572904  0.06415689    -0.89100
H948        H  0.71694066  0.72867339  0.12645041     0.18600
H949        H  0.71014771  0.84517531  0.09286599     0.18500
N950        N  0.72335171  0.83869062  0.15473987    -0.88200
H951        H  0.72000982  0.73643711  0.04550609     0.35900
H952        H  0.67936757  0.73924821  0.05392032     0.41000
H953        H  0.74592322  0.83525407  0.16630164     0.40600
H954        H  0.70467622  0.83908169  0.17220524     0.35500
C955        C  0.59795014  0.74588199  0.30990758    -0.26200
C956        C  0.61779823  0.76946122  0.29452388    -0.14300
C957        C  0.60398612  0.80072779  0.28742696     0.36400
C958        C  0.57110497  0.80718582  0.29517787    -0.25600
C959        C  0.55161022  0.78379419  0.31063088    -0.14900
C960        C  0.56520133  0.75283447  0.31817347     0.37400
N961        N  0.54665459  0.72849535  0.33511133    -0.89100
H962        H  0.60796916  0.72197078  0.31587232     0.18600
H963        H  0.56073798  0.83116310  0.29000286     0.18500
N964        N  0.62341123  0.82629536  0.27317550    -0.88200
H965        H  0.52612052  0.72289143  0.32108068     0.35900
H966        H  0.53863272  0.73842100  0.35728956     0.41000
H967        H  0.64072306  0.83322106  0.29058068     0.40600
H968        H  0.60914704  0.84713842  0.26843743     0.35500
C969        C  0.77359551  0.89200113  0.26667138    -0.26200
C970        C  0.76361617  0.87079521  0.29165858    -0.14300
C971        C  0.75847757  0.88310375  0.32336080     0.36400
C972        C  0.76498176  0.91623602  0.32984411    -0.25600
C973        C  0.77679714  0.93729604  0.30529745    -0.14900
C974        C  0.78073785  0.92503333  0.27320459     0.37400
N975        N  0.79329635  0.94566727  0.24768612    -0.89100
H976        H  0.77704237  0.88238803  0.24222996     0.18600
H977        H  0.76160831  0.92553290  0.35440892     0.18500
N978        N  0.74692907  0.86182383  0.34884118    -0.88200
H979        H  0.79450010  0.93295132  0.22556588     0.35900
H980        H  0.81736028  0.95165206  0.25377920     0.41000
H981        H  0.72339096  0.85428771  0.34246097     0.40600
H982        H  0.74460122  0.87461659  0.37084139     0.35500
C983        C  0.88771314  0.71454776  0.25828875    -0.26200
C984        C  0.86476042  0.72446938  0.23460366    -0.14300
C985        C  0.87466006  0.72526821  0.20137760     0.36400
C986        C  0.90642047  0.71555408  0.19268236    -0.25600
C987        C  0.92894639  0.70444825  0.21611762    -0.14900
C988        C  0.91943804  0.70421147  0.24939702     0.37400
N989        N  0.94079080  0.69210027  0.27444278    -0.89100
H990        H  0.88053755  0.71353204  0.28377253     0.18600
H991        H  0.91340197  0.71599248  0.16711297     0.18500
N992        N  0.85325410  0.73623496  0.17583502    -0.88200
H993        H  0.96155433  0.70679908  0.27528339     0.35900
H994        H  0.94800739  0.66824157  0.26840934     0.41000
H995        H  0.84417115  0.75946527  0.18186045     0.40600
H996        H  0.83380885  0.71995085  0.17369388     0.35500
C997        C  0.26115365  0.40407787  0.76447463    -0.26200
C998        C  0.28625720  0.38158613  0.75675622    -0.14300
C999        C  0.31914914  0.39217588  0.75733015     0.36400
C1000       C  0.32618898  0.42412420  0.76692291    -0.25600
C1001       C  0.30129762  0.44602807  0.77648693    -0.14900
C1002       C  0.26832152  0.43600948  0.77463700     0.37400
N1003       N  0.24182175  0.45696333  0.78453096    -0.89100
H1004       H  0.23583979  0.39633522  0.76404241     0.18600
H1005       H  0.35155879  0.43168389  0.76786626     0.18500
N1006       N  0.34592541  0.37128594  0.74795432    -0.88200
H1007       H  0.24121752  0.47744755  0.76925269     0.35900
H1008       H  0.24603733  0.46468154  0.80847731     0.41000
H1009       H  0.34136769  0.36213798  0.72458260     0.40600
H1010       H  0.34770913  0.35179924  0.76441902     0.35500
C1011       C  0.43503344  0.24307734  0.70265372    -0.26200
C1012       C  0.44379016  0.20999493  0.69863924    -0.14300
C1013       C  0.41995647  0.18569605  0.70453929     0.36400
C1014       C  0.38743674  0.19511896  0.71149804    -0.25600
C1015       C  0.37852106  0.22823901  0.71430551    -0.14900
C1016       C  0.40292287  0.25237806  0.71072008     0.37400
N1017       N  0.39551897  0.28660248  0.71361390    -0.89100
H1018       H  0.45299474  0.26198273  0.69832969     0.18600
H1019       H  0.36898940  0.17652989  0.71509994     0.18500
N1020       N  0.42889621  0.15157980  0.70355492    -0.88200
H1021       H  0.38731538  0.29128258  0.73735564     0.35900
H1022       H  0.37679347  0.29252326  0.69720562     0.41000
H1023       H  0.44575344  0.14731228  0.72230748     0.40600
H1024       H  0.40861812  0.13692114  0.70852484     0.35500
C1025       C  0.19076805  0.12525635  0.72240721    -0.26200
C1026       C  0.22303930  0.13563376  0.71678231    -0.14300
C1027       C  0.24629672  0.11250492  0.70482966     0.36400
C1028       C  0.23673386  0.08028231  0.69833748    -0.25600
C1029       C  0.20421583  0.07049805  0.70256427    -0.14900
C1030       C  0.18104708  0.09308050  0.71506778     0.37400
N1031       N  0.14762581  0.08331303  0.71975560    -0.89100
H1032       H  0.17279108  0.14260159  0.73162320     0.18600
H1033       H  0.25459291  0.06306106  0.68864281     0.18500
N1034       N  0.27986885  0.12077462  0.69925919    -0.88200
H1035       H  0.13357518  0.10278477  0.72887616     0.35900
H1036       H  0.14744450  0.06499910  0.73762394     0.41000
H1037       H  0.28944842  0.13068964  0.72070592     0.40600
H1038       H  0.28110575  0.13813030  0.68054241     0.35500
C1039       C  0.10858867  0.26896449  0.76959630    -0.26200
C1040       C  0.13050660  0.29213607  0.75671526    -0.14300
C1041       C  0.11869649  0.32458957  0.75143601     0.36400
C1042       C  0.08639908  0.33296874  0.75983666    -0.25600
C1043       C  0.06495524  0.31003455  0.77354281    -0.14900
C1044       C  0.07607609  0.27749732  0.77801131     0.37400
N1045       N  0.05505305  0.25369997  0.79296958    -0.89100
H1046       H  0.11700094  0.24407346  0.77369679     0.18600
H1047       H  0.07827969  0.35812321  0.75674742     0.18500
N1048       N  0.13909408  0.35016260  0.73906827    -0.88200
H1049       H  0.06766727  0.23163007  0.79667115     0.35900
H1050       H  0.03635918  0.24856737  0.77642306     0.41000
H1051       H  0.14663969  0.34415213  0.71540859     0.40600
H1052       H  0.15949023  0.35246569  0.75425611     0.35500
C1053       C  0.22829615  0.25690394  0.59040912    -0.26200
C1054       C  0.24052030  0.28140110  0.61099693    -0.14300
C1055       C  0.24526814  0.31311480  0.59835677     0.36400
C1056       C  0.23587944  0.32041182  0.56624154    -0.25600
C1057       C  0.22167706  0.29657857  0.54627409    -0.14900
C1058       C  0.21855330  0.26424507  0.55831223     0.37400
N1059       N  0.20383408  0.23896257  0.53925124    -0.89100
H1060       H  0.22450089  0.23243460  0.59989115     0.18600
H1061       H  0.23856101  0.34521872  0.55722020     0.18500
N1062       N  0.25937064  0.33810681  0.61825318    -0.88200
H1063       H  0.21793595  0.23530801  0.51824110     0.35900
H1064       H  0.18041801  0.24675875  0.53226812     0.41000
H1065       H  0.24267871  0.35760395  0.61972201     0.40600
H1066       H  0.28044653  0.34652175  0.60650144     0.35500
C1067       C  0.24929177  0.21579870  0.87789847    -0.26200
C1068       C  0.27391065  0.23202749  0.86017220    -0.14300
C1069       C  0.30435041  0.23762872  0.87569173     0.36400
C1070       C  0.30983285  0.22578668  0.90746361    -0.25600
C1071       C  0.28562573  0.20849334  0.92443357    -0.14900
C1072       C  0.25485293  0.20393794  0.90955175     0.37400
N1073       N  0.22935751  0.18588179  0.92528170    -0.89100
H1074       H  0.22570666  0.21131987  0.86678126     0.18600
H1075       H  0.33358729  0.22929293  0.91863167     0.18500
N1076       N  0.33023252  0.25439266  0.85913985    -0.88200
H1077       H  0.22280680  0.19790747  0.94684845     0.35900
H1078       H  0.23838745  0.16258442  0.93115533     0.41000
H1079       H  0.35056501  0.23869084  0.85799179     0.40600
H1080       H  0.33663623  0.27474096  0.87313453     0.35500
C1081       C  0.80281029  0.27286990  0.60942452    -0.26200
C1082       C  0.77501889  0.28707492  0.62432062    -0.14300
C1083       C  0.75426779  0.30731784  0.60504217     0.36400
C1084       C  0.76237740  0.31384821  0.57224639    -0.25600
C1085       C  0.79077035  0.30056586  0.55813884    -0.14900
C1086       C  0.81085076  0.27947135  0.57685069     0.37400
N1087       N  0.83975385  0.26459538  0.56336262    -0.89100
H1088       H  0.81892187  0.25689286  0.62328096     0.18600
H1089       H  0.74694292  0.33020049  0.55803852     0.18500
N1090       N  0.72519910  0.32176198  0.61858742    -0.88200
H1091       H  0.85583701  0.28302866  0.55616674     0.35900
H1092       H  0.83305777  0.25129078  0.54266666     0.41000
H1093       H  0.70523655  0.31409698  0.60468872     0.40600
H1094       H  0.72693786  0.34718969  0.61632593     0.35500
C1095       C  0.68667644  0.43207355  0.77653331    -0.26200
C1096       C  0.71004218  0.45055115  0.79342994    -0.14300
C1097       C  0.74156247  0.43687723  0.79894423     0.36400
C1098       C  0.74841606  0.40498019  0.78824029    -0.25600
C1099       C  0.72469170  0.38601090  0.77249121    -0.14900
C1100       C  0.69356547  0.39991813  0.76610360     0.37400
N1101       N  0.66864913  0.38100251  0.75032195    -0.89100
H1102       H  0.66252494  0.44247655  0.77244198     0.18600
H1103       H  0.77239113  0.39453763  0.79319402     0.18500
N1104       N  0.76663328  0.45351451  0.81692209    -0.88200
H1105       H  0.64729163  0.39495980  0.74726617     0.35900
H1106       H  0.66260106  0.36168229  0.76594866     0.41000
H1107       H  0.75851149  0.47567569  0.82669573     0.40600
H1108       H  0.78562599  0.45877779  0.80062519     0.35500
C1109       C  0.77770042  0.12691970  0.69523174    -0.26200
C1110       C  0.78044367  0.13833927  0.72735931    -0.14300
C1111       C  0.79100396  0.11650470  0.75222134     0.36400
C1112       C  0.79937639  0.08408283  0.74397489    -0.25600
C1113       C  0.79754987  0.07288534  0.71158677    -0.14900
C1114       C  0.78554500  0.09434396  0.68716201     0.37400
N1115       N  0.78128881  0.08292441  0.65424604    -0.89100
H1116       H  0.76923967  0.14355811  0.67633027     0.18600
H1117       H  0.80854020  0.06785035  0.76289065     0.18500
N1118       N  0.79442513  0.12640772  0.78574944    -0.88200
H1119       H  0.77228985  0.10169679  0.63927848     0.35900
H1120       H  0.76341248  0.06475352  0.65474965     0.41000
H1121       H  0.78793141  0.15091513  0.78919163     0.40600
H1122       H  0.81920764  0.12434379  0.79182634     0.35500
C1123       C  0.61599832  0.25517449  0.69228368    -0.26200
C1124       C  0.63015974  0.23924914  0.71939425    -0.14300
C1125       C  0.61136913  0.21598466  0.73664091     0.36400
C1126       C  0.57988726  0.20803861  0.72566078    -0.25600
C1127       C  0.56656910  0.22280959  0.69772249    -0.14900
C1128       C  0.58455150  0.24728458  0.68122209     0.37400
N1129       N  0.57211876  0.26406925  0.65284930    -0.89100
H1130       H  0.62979557  0.27331747  0.67883170     0.18600
H1131       H  0.56620605  0.18927139  0.73837827     0.18500
N1132       N  0.62412217  0.20010778  0.76518335    -0.88200
H1133       H  0.57049949  0.28897600  0.65856940     0.35900
H1134       H  0.54838190  0.25677774  0.64718551     0.41000
H1135       H  0.62426501  0.17485467  0.76104359     0.40600
H1136       H  0.60818785  0.20495918  0.78464321     0.35500
C1137       C  0.71647929  0.18987180  0.91196295    -0.26200
C1138       C  0.70504956  0.21330736  0.93442785    -0.14300
C1139       C  0.70483353  0.24672474  0.92510775     0.36400
C1140       C  0.71582428  0.25577487  0.89378443    -0.25600
C1141       C  0.72616771  0.23206142  0.87103605    -0.14900
C1142       C  0.72675252  0.19886832  0.88051579     0.37400
N1143       N  0.73789172  0.17412815  0.85823918    -0.89100
H1144       H  0.71672170  0.16417452  0.91865597     0.18600
H1145       H  0.71486960  0.28133732  0.88668182     0.18500
N1146       N  0.69191311  0.27171077  0.94611512    -0.88200
H1147       H  0.71897065  0.15735942  0.85503801     0.35900
H1148       H  0.75765810  0.16176430  0.86895803     0.41000
H1149       H  0.70599490  0.27246660  0.96734556     0.40600
H1150       H  0.66791220  0.26559785  0.95244147     0.35500
C1151       C  0.88319648  0.32122626  0.77802092    -0.26200
C1152       C  0.87572995  0.28797238  0.77530094    -0.14300
C1153       C  0.90111405  0.26440021  0.77771494     0.36400
C1154       C  0.93353817  0.27468360  0.78343751    -0.25600
C1155       C  0.94090639  0.30804737  0.78666664    -0.14900
C1156       C  0.91548737  0.33155746  0.78294974     0.37400
N1157       N  0.92265903  0.36594321  0.78393291    -0.89100
H1158       H  0.86376183  0.33929625  0.77552777     0.18600
H1159       H  0.95290351  0.25663435  0.78639528     0.18500
N1160       N  0.89371517  0.23016879  0.77522843    -0.88200
H1161       H  0.90134264  0.37998198  0.78097107     0.35900
H1162       H  0.93779811  0.37118952  0.76400139     0.41000
H1163       H  0.87865522  0.22413384  0.79499546     0.40600
H1164       H  0.91504101  0.21602950  0.77762273     0.35500
C1165       C  0.19699852  0.73135597  0.61994156    -0.26200
C1166       C  0.23014477  0.73014465  0.62912137    -0.14300
C1167       C  0.25358439  0.71887717  0.60598865     0.36400
C1168       C  0.24314809  0.70811763  0.57498062    -0.25600
C1169       C  0.20990492  0.70839283  0.56647260    -0.14900
C1170       C  0.18678505  0.72067182  0.58907711     0.37400
N1171       N  0.15277305  0.72245975  0.58068937    -0.89100
H1172       H  0.17860672  0.74002777  0.63705000     0.18600
H1173       H  0.26095275  0.69876261  0.55761311     0.18500
N1174       N  0.28784604  0.71826097  0.61394186    -0.88200
H1175       H  0.14509390  0.74685270  0.58277213     0.35900
H1176       H  0.13967934  0.70863563  0.59773353     0.41000
H1177       H  0.29525067  0.74251019  0.61693337     0.40600
H1178       H  0.30162301  0.70874301  0.59454749     0.35500
C1179       C  0.39497037  0.81279227  0.74283694    -0.26200
C1180       C  0.38144287  0.78432693  0.72915699    -0.14300
C1181       C  0.40179629  0.76407387  0.70932880     0.36400
C1182       C  0.43417183  0.77369933  0.70247130    -0.25600
C1183       C  0.44686494  0.80266752  0.71530433    -0.14900
C1184       C  0.42713713  0.82213590  0.73598839     0.37400
N1185       N  0.43903877  0.85194182  0.74983331    -0.89100
H1186       H  0.38021451  0.82858584  0.75831171     0.18600
H1187       H  0.44936675  0.75896910  0.68637300     0.18500
N1188       N  0.38960630  0.73412225  0.69576092    -0.88200
H1189       H  0.44544756  0.86779768  0.73084202     0.35900
H1190       H  0.46009924  0.84647308  0.76332146     0.41000
H1191       H  0.38555953  0.71798754  0.71519045     0.40600
H1192       H  0.40724681  0.72298116  0.68083224     0.35500
C1193       C  0.09456992  0.73251220  0.82689412    -0.26200
C1194       C  0.07096618  0.72451053  0.80341095    -0.14300
C1195       C  0.07880860  0.72753198  0.76988792     0.36400
C1196       C  0.11069198  0.73669588  0.76073348    -0.25600
C1197       C  0.13494067  0.74186460  0.78436439    -0.14900
C1198       C  0.12648424  0.74092820  0.81779416     0.37400
N1199       N  0.15047803  0.74804514  0.84239809    -0.89100
H1200       H  0.08831182  0.73114911  0.85260114     0.18600
H1201       H  0.11717094  0.73781758  0.73507287     0.18500
N1202       N  0.05501269  0.71979341  0.74531709    -0.88200
H1203       H  0.14037462  0.74585493  0.86578533     0.35900
H1204       H  0.15715038  0.77255259  0.83960665     0.41000
H1205       H  0.04988984  0.69482761  0.74725205     0.40600
H1206       H  0.06469468  0.72345839  0.72194027     0.35500
C1207       C  0.27378594  0.58026257  0.78803723    -0.26200
C1208       C  0.30468139  0.56905317  0.77792610    -0.14300
C1209       C  0.32536145  0.59000293  0.76019421     0.36400
C1210       C  0.31532767  0.62247551  0.75422295    -0.25600
C1211       C  0.28508496  0.63442009  0.76589690    -0.14900
C1212       C  0.26380385  0.61269493  0.78221689     0.37400
N1213       N  0.23206070  0.62337549  0.79294725    -0.89100
H1214       H  0.25779207  0.56407003  0.80156680     0.18600
H1215       H  0.33170573  0.63879216  0.74135761     0.18500
N1216       N  0.35671928  0.57833741  0.74899146    -0.88200
H1217       H  0.23060016  0.61983647  0.81821052     0.35900
H1218       H  0.21457280  0.60849007  0.78191673     0.41000
H1219       H  0.35251112  0.55965322  0.73211527     0.40600
H1220       H  0.36907607  0.59681484  0.73642421     0.35500
C1221       C  0.26827658  0.81357474  0.88759693    -0.26200
C1222       C  0.27504146  0.78192332  0.87599291    -0.14300
C1223       C  0.28676446  0.75771569  0.89793604     0.36400
C1224       C  0.29308037  0.76629419  0.93060313    -0.25600
C1225       C  0.28752979  0.79828950  0.94165365    -0.14900
C1226       C  0.27415385  0.82192202  0.92027915     0.37400
N1227       N  0.26751075  0.85456703  0.93176587    -0.89100
H1228       H  0.25867530  0.83195693  0.87097702     0.18600
H1229       H  0.30364479  0.74838712  0.94715726     0.18500
N1230       N  0.29412825  0.72516834  0.88661350    -0.88200
H1231       H  0.24931558  0.85299216  0.94969532     0.35900
H1232       H  0.25789575  0.86909660  0.91298013     0.41000
H1233       H  0.27190105  0.71378741  0.88153428     0.40600
H1234       H  0.30509628  0.71131104  0.90516694     0.35500
C1235       C  0.24996154  0.90558770  0.72147642    -0.26200
C1236       C  0.22589297  0.88208331  0.72803796    -0.14300
C1237       C  0.19255631  0.89134005  0.72629591     0.36400
C1238       C  0.18405158  0.92331715  0.71665924    -0.25600
C1239       C  0.20797956  0.94643816  0.70828616    -0.14900
C1240       C  0.24144811  0.93740218  0.71128484     0.37400
N1241       N  0.26732549  0.95912101  0.70233541    -0.89100
H1242       H  0.27562391  0.89875737  0.72282181     0.18600
H1243       H  0.15839689  0.93006995  0.71487025     0.18500
N1244       N  0.16739567  0.86816154  0.73412436    -0.88200
H1245       H  0.26714473  0.97910460  0.71815823     0.35900
H1246       H  0.26334410  0.96737205  0.67846825     0.41000
H1247       H  0.14416193  0.87869690  0.73119881     0.40600
H1248       H  0.16967969  0.86225795  0.75888234     0.35500
C1249       C  0.76135464  0.71854816  0.62176104    -0.26200
C1250       C  0.78536936  0.73334552  0.64132521    -0.14300
C1251       C  0.81724397  0.73744646  0.62803032     0.36400
C1252       C  0.82404560  0.72671990  0.59600040    -0.25600
C1253       C  0.79998285  0.71202251  0.57664902    -0.14900
C1254       C  0.76836480  0.70763825  0.58982696     0.37400
N1255       N  0.74376715  0.69110272  0.57114434    -0.89100
H1256       H  0.73701209  0.71491686  0.63160195     0.18600
H1257       H  0.84845138  0.72968873  0.58604600     0.18500
N1258       N  0.84303400  0.75138479  0.64725775    -0.88200
H1259       H  0.72184566  0.68976434  0.58428939     0.35900
H1260       H  0.75179952  0.66698319  0.56758838     0.41000
H1261       H  0.83797566  0.77639900  0.64961231     0.40600
H1262       H  0.86545811  0.74968911  0.63496982     0.35500
C1263       C  0.75392493  0.61972871  0.80526292    -0.26200
C1264       C  0.73198858  0.63921215  0.78696768    -0.14300
C1265       C  0.70248641  0.62526505  0.77604775     0.36400
C1266       C  0.69553016  0.59260798  0.78342478    -0.25600
C1267       C  0.71713276  0.57337768  0.80195718    -0.14900
C1268       C  0.74686268  0.58698704  0.81296944     0.37400
N1269       N  0.76972194  0.56895265  0.83290296    -0.89100
H1270       H  0.77662718  0.63007964  0.81397363     0.18600
H1271       H  0.67233085  0.58250855  0.77569992     0.18500
N1272       N  0.67869284  0.64452833  0.75876787    -0.88200
H1273       H  0.79162894  0.56689231  0.81977623     0.35900
H1274       H  0.76183068  0.54511975  0.83732826     0.41000
H1275       H  0.65689517  0.64442814  0.77221586     0.40600
H1276       H  0.67427624  0.63323268  0.73632329     0.35500
C1277       C  0.62173986  0.77622660  0.70886180    -0.26200
C1278       C  0.63457386  0.78739480  0.73863363    -0.14300
C1279       C  0.61421894  0.80673029  0.75924829     0.36400
C1280       C  0.58232831  0.81535953  0.74897782    -0.25600
C1281       C  0.57017733  0.80500613  0.71875634    -0.14900
C1282       C  0.59005533  0.78480773  0.69862649     0.37400
N1283       N  0.57904485  0.77252487  0.66764732    -0.89100
H1284       H  0.63675349  0.76126496  0.69281093     0.18600
H1285       H  0.56708266  0.83085673  0.76429780     0.18500
N1286       N  0.62591456  0.81771007  0.79042870    -0.88200
H1287       H  0.59319283  0.78350407  0.64941448     0.35900
H1288       H  0.55467478  0.77872964  0.66296865     0.41000
H1289       H  0.62950350  0.79698602  0.80506149     0.40600
H1290       H  0.60819369  0.83210983  0.80218418     0.35500
C1291       C  0.73691946  0.76312040  0.91220063    -0.26200
C1292       C  0.74299195  0.78819983  0.88952396    -0.14300
C1293       C  0.74254561  0.82106086  0.90020038     0.36400
C1294       C  0.73332173  0.82827278  0.93247870    -0.25600
C1295       C  0.72412163  0.80343937  0.95436291    -0.14900
C1296       C  0.72711224  0.77046980  0.94436974     0.37400
N1297       N  0.71818674  0.74446179  0.96604969    -0.89100
H1298       H  0.73765651  0.73778820  0.90437914     0.18600
H1299       H  0.73197310  0.85360013  0.94024429     0.18500
N1300       N  0.75080922  0.84705674  0.87800073    -0.88200
H1301       H  0.69938866  0.73116265  0.95515199     0.35900
H1302       H  0.73846122  0.72888052  0.96866357     0.41000
H1303       H  0.77541352  0.84397536  0.87151079     0.40600
H1304       H  0.74888600  0.86981058  0.88955239     0.35500
C1305       C  0.81901200  0.89477008  0.74691298    -0.26200
C1306       C  0.78585302  0.88621074  0.74730379    -0.14300
C1307       C  0.76178511  0.91071159  0.74185469     0.36400
C1308       C  0.77165780  0.94256483  0.73319771    -0.25600
C1309       C  0.80497346  0.95026050  0.73013120    -0.14900
C1310       C  0.82880183  0.92661336  0.73901253     0.37400
N1311       N  0.86296817  0.93485889  0.73899788    -0.89100
H1312       H  0.83745989  0.87632425  0.75232517     0.18600
H1313       H  0.75333665  0.96077980  0.72674657     0.18500
N1314       N  0.72757019  0.90287823  0.74351326    -0.88200
H1315       H  0.87732704  0.91466556  0.74581271     0.35900
H1316       H  0.86638634  0.95277221  0.75684379     0.41000
H1317       H  0.72259015  0.88653982  0.72456412     0.40600
H1318       H  0.71318509  0.92374537  0.73926031     0.35500
C1319       C  0.90412775  0.72904658  0.76504307    -0.26200
C1320       C  0.88237963  0.73753088  0.79038178    -0.14300
C1321       C  0.89397646  0.73799126  0.82289646     0.36400
C1322       C  0.92629239  0.72885939  0.82946334    -0.25600
C1323       C  0.94765300  0.71892027  0.80442930    -0.14900
C1324       C  0.93650464  0.71948437  0.77172219     0.37400
N1325       N  0.95684880  0.70906432  0.74507663    -0.89100
H1326       H  0.89557726  0.72873466  0.73999715     0.18600
H1327       H  0.93470546  0.72895739  0.85457010     0.18500
N1328       N  0.87378649  0.74825198  0.84972475    -0.88200
H1329       H  0.96539193  0.68535438  0.74993036     0.35900
H1330       H  0.97686112  0.72469154  0.74330149     0.41000
H1331       H  0.85451326  0.73183828  0.85248429     0.40600
H1332       H  0.86428845  0.77154041  0.84455651     0.35500
C1333       C  0.41393837  0.89196955  0.02702610    -0.26200
C1334       C  0.41446629  0.91511096  0.00169777    -0.14300
C1335       C  0.39039388  0.91379734  0.97706350     0.36400
C1336       C  0.36566956  0.89049238  0.97899011    -0.25600
C1337       C  0.36499149  0.86697017  0.00419419    -0.14900
C1338       C  0.39001110  0.86748480  0.02805783     0.37400
N1339       N  0.39206635  0.84262536  0.05269063    -0.89100
H1340       H  0.43267555  0.89249933  0.04572074     0.18600
H1341       H  0.34681048  0.89093014  0.96043505     0.18500
N1342       N  0.39097801  0.93522236  0.94929402    -0.88200
H1343       H  0.39120770  0.85405862  0.07551633     0.35900
H1344       H  0.41479025  0.83084865  0.05046307     0.41000
H1345       H  0.41369604  0.93268291  0.93770905     0.40600
H1346       H  0.38826833  0.95938986  0.95715831     0.35500
C1347       C  0.38164782  0.07672809  0.96807886    -0.26200
C1348       C  0.40858574  0.08295581  0.98835506    -0.14300
C1349       C  0.40877524  0.11164007  0.00751318     0.36400
C1350       C  0.38262884  0.13405516  0.00504555    -0.25600
C1351       C  0.35580993  0.12797315  0.98459898    -0.14900
C1352       C  0.35515298  0.09862013  0.96633691     0.37400
N1353       N  0.32739727  0.08966906  0.94706287    -0.89100
H1354       H  0.38104044  0.05438108  0.95385561     0.18600
H1355       H  0.38295176  0.15629661  0.01944098     0.18500
N1356       N  0.43535769  0.11769257  0.02959687    -0.88200
H1357       H  0.32422320  0.10677655  0.92835552     0.35900
H1358       H  0.30661214  0.09001806  0.96201992     0.41000
H1359       H  0.43503709  0.09934372  0.04743661     0.40600
H1360       H  0.43183693  0.13992751  0.04177434     0.35500
C1361       C  0.61741356  0.87158369  0.98002002    -0.26200
C1362       C  0.63557859  0.86902798  0.00921523    -0.14300
C1363       C  0.62898369  0.89221528  0.03439149     0.36400
C1364       C  0.60331786  0.91482769  0.03073961    -0.25600
C1365       C  0.58590692  0.91759010  0.00139364    -0.14900
C1366       C  0.59395890  0.89652822  0.97531788     0.37400
N1367       N  0.57795969  0.90038571  0.94427339    -0.89100
H1368       H  0.62176243  0.85434081  0.96040683     0.18600
H1369       H  0.59767648  0.93134795  0.05071118     0.18500
N1370       N  0.64927976  0.89561070  0.06269254    -0.88200
H1371       H  0.58655757  0.88291323  0.92762110     0.35900
H1372       H  0.58446391  0.92326125  0.93491298     0.41000
H1373       H  0.67392092  0.89491647  0.05574981     0.40600
H1374       H  0.64421835  0.87718624  0.07954816     0.35500
C1375       C  0.60390455  0.08890876  0.96575967    -0.26200
C1376       C  0.57815801  0.08894228  0.98847325    -0.14300
C1377       C  0.57706245  0.11347504  0.01277609     0.36400
C1378       C  0.60062215  0.13813360  0.01290534    -0.25600
C1379       C  0.62660486  0.13818891  0.99028223    -0.14900
C1380       C  0.62854564  0.11263339  0.96702429     0.37400
N1381       N  0.65626278  0.10965333  0.94569470    -0.89100
H1382       H  0.60552240  0.06959253  0.94768947     0.18600
H1383       H  0.59873517  0.15718184  0.03120562     0.18500
N1384       N  0.55319583  0.11314123  0.03849193    -0.88200
H1385       H  0.64780183  0.10990871  0.92160775     0.35900
H1386       H  0.66743501  0.08692530  0.94999802     0.41000
H1387       H  0.55475290  0.09058447  0.05053251     0.40600
H1388       H  0.52984955  0.11562296  0.02844241     0.35500
C1389       C  0.98496334  0.42273220  0.89165143    -0.26200
C1390       C  0.01377429  0.42473311  0.90994732    -0.14300
C1391       C  0.04081464  0.40455653  0.90145989     0.36400
C1392       C  0.03726089  0.38133116  0.87659204    -0.25600
C1393       C  0.00860443  0.37976810  0.85752362    -0.14900
C1394       C  0.98272426  0.40225056  0.86458078     0.37400
N1395       N  0.95535900  0.40754048  0.84330051    -0.89100
H1396       H  0.96435599  0.43857097  0.89758258     0.18600
H1397       H  0.05747199  0.36461520  0.87210134     0.18500
N1398       N  0.07197005  0.40656416  0.91766520    -0.75400
H1399       H  0.93702463  0.39063284  0.84834666     0.35900
H1400       H  0.96293901  0.40630025  0.81894359     0.41000
H1401       H  0.07228558  0.42544473  0.93478372     0.40600
H1402       H  0.08943279  0.41273278  0.90003456     0.35500
C1403       C  0.02126768  0.38103601  0.12640251    -0.26200
C1404       C  0.99759745  0.35656200  0.12256557    -0.14300
C1405       C  0.97552561  0.35877183  0.09598375     0.36400
C1406       C  0.97637950  0.38625219  0.07526795    -0.25600
C1407       C  0.00007818  0.41057648  0.07921056    -0.14900
C1408       C  0.02304560  0.40755575  0.10481731     0.37400
N1409       N  0.04895087  0.43060855  0.10896072    -0.89100
H1410       H  0.03849196  0.37969143  0.14645929     0.18600
H1411       H  0.95919251  0.38825145  0.05521723     0.18500
N1412       N  0.95297527  0.33272833  0.08954564    -0.88200
H1413       H  0.03879277  0.45370293  0.11349398     0.35900
H1414       H  0.06242931  0.43167138  0.08724480     0.41000
H1415       H  0.96678122  0.31184545  0.08375071     0.40600
H1416       H  0.93866252  0.33811486  0.06905025     0.35500
C1417       C  0.99424359  0.61972384  0.92634957    -0.26200
C1418       C  0.01846967  0.59523395  0.92451367    -0.14300
C1419       C  0.04162757  0.59622331  0.89886499     0.36400
C1420       C  0.03877780  0.62043155  0.87455472    -0.25600
C1421       C  0.01410511  0.64464657  0.87599503    -0.14900
C1422       C  0.99230111  0.64469391  0.90284563     0.37400
N1423       N  0.96858753  0.67042815  0.90682661    -0.89100
H1424       H  0.97652320  0.61932992  0.94609104     0.18600
H1425       H  0.05575273  0.62014236  0.85419132     0.18500
N1426       N  0.06739269  0.57207058  0.89720509    -0.88200
H1427       H  0.94536248  0.65988866  0.90773086     0.35900
H1428       H  0.97284731  0.68179857  0.92926547     0.41000
H1429       H  0.08231544  0.57523450  0.91765476     0.40600
H1430       H  0.08213591  0.57594379  0.87667143     0.35500
C1431       C  0.97184397  0.60393300  0.09079107    -0.26200
C1432       C  0.99637236  0.57973122  0.09234725    -0.14300
C1433       C  0.01768547  0.57887896  0.11942099     0.36400
C1434       C  0.01391176  0.60188682  0.14437333    -0.25600
C1435       C  0.99008819  0.62690171  0.14252547    -0.14900
C1436       C  0.96887861  0.62798576  0.11521650     0.37400
N1437       N  0.94538825  0.65415652  0.11162970    -0.89100
H1438       H  0.95576277  0.60470704  0.06977623     0.18600
H1439       H  0.03039506  0.60068628  0.16505530     0.18500
N1440       N  0.04428492  0.55586088  0.12150952    -0.88200
H1441       H  0.93179140  0.65126747  0.09022571     0.35900
H1442       H  0.95839285  0.67594190  0.10897827     0.41000
H1443       H  0.05891633  0.55839041  0.10068328     0.40600
H1444       H  0.03491589  0.53216727  0.12198998     0.35500
C1445       C  0.39054041  0.52148739  0.08283682    -0.26200
C1446       C  0.41061984  0.49370198  0.07918115    -0.14300
C1447       C  0.40355056  0.46526799  0.09762805     0.36400
C1448       C  0.37810931  0.46627667  0.12067814    -0.25600
C1449       C  0.35749111  0.49396202  0.12407614    -0.14900
C1450       C  0.36336683  0.52139128  0.10379202     0.37400
N1451       N  0.34105559  0.54863198  0.10303630    -0.89100
H1452       H  0.39511844  0.54300353  0.06801550     0.18600
H1453       H  0.37437436  0.44483549  0.13576182     0.18500
N1454       N  0.42077990  0.43474664  0.09303476    -0.88200
H1455       H  0.33220931  0.55110519  0.07919965     0.35900
H1456       H  0.35409421  0.56979095  0.10871635     0.41000
H1457       H  0.43810512  0.43615347  0.07433400     0.40600
H1458       H  0.43333787  0.42930382  0.11462350     0.35500
C1459       C  0.60624651  0.53197319  0.13415434    -0.26200
C1460       C  0.63071191  0.50754501  0.13226908    -0.14300
C1461       C  0.63115143  0.48633016  0.10507342     0.36400
C1462       C  0.60611472  0.48838541  0.08176892    -0.25600
C1463       C  0.58127364  0.51219563  0.08427379    -0.14900
C1464       C  0.58206690  0.53490662  0.11016463     0.37400
N1465       N  0.55921452  0.56164241  0.11217727    -0.89100
H1466       H  0.60574327  0.54887139  0.15452235     0.18600
H1467       H  0.60629164  0.47158435  0.06129517     0.18500
N1468       N  0.65748913  0.46340685  0.10043278    -0.88200
H1469       H  0.53555259  0.55240131  0.11412329     0.35900
H1470       H  0.56079418  0.57524393  0.09057036     0.41000
H1471       H  0.66872011  0.46859961  0.07805468     0.40600
H1472       H  0.64756137  0.43994634  0.09898592     0.35500
C1473       C  0.41430405  0.47362098  0.88806461    -0.26200
C1474       C  0.41830253  0.50078500  0.90840387    -0.14300
C1475       C  0.40042582  0.52974537  0.90184334     0.36400
C1476       C  0.37744658  0.53023745  0.87662442    -0.25600
C1477       C  0.37375045  0.50334011  0.85543529    -0.14900
C1478       C  0.39408970  0.47533863  0.86038743     0.37400
N1479       N  0.39548134  0.44941597  0.83668771    -0.89100
H1480       H  0.42856839  0.45162410  0.89277198     0.18600
H1481       H  0.36259069  0.55209433  0.87375153     0.18500
N1482       N  0.40570037  0.55927961  0.91989178    -0.88200
H1483       H  0.41189447  0.43101053  0.84394268     0.35900
H1484       H  0.40474461  0.45928925  0.81501560     0.41000
H1485       H  0.43046755  0.56533015  0.91803431     0.40600
H1486       H  0.40012571  0.55525919  0.94444603     0.35500
C1487       C  0.58849790  0.53806928  0.89322808    -0.26200
C1488       C  0.58768823  0.51409080  0.91767193    -0.14300
C1489       C  0.61181659  0.48912811  0.91815541     0.36400
C1490       C  0.63669615  0.48909463  0.89470876    -0.25600
C1491       C  0.63772553  0.51315279  0.87018584    -0.14900
C1492       C  0.61296030  0.53754731  0.86921690     0.37400
N1493       N  0.61188297  0.56115949  0.84330471    -0.89100
H1494       H  0.56957388  0.55682022  0.89237502     0.18600
H1495       H  0.65541370  0.47016170  0.89575321     0.18500
N1496       N  0.61113147  0.46309686  0.94165740    -0.88200
H1497       H  0.61271530  0.58450965  0.85368575     0.35900
H1498       H  0.58946738  0.55890393  0.83126186     0.41000
H1499       H  0.58854085  0.45137323  0.93997629     0.40600
H1500       H  0.61330506  0.47300296  0.96503662     0.35500
C1501       C  0.11366323  0.58069984  0.48529181    -0.26200
C1502       C  0.08727668  0.58344063  0.50712602    -0.14300
C1503       C  0.08645687  0.60987630  0.52958039     0.36400
C1504       C  0.11116407  0.63347222  0.52838382    -0.25600
C1505       C  0.13755544  0.63071984  0.50641451    -0.14900
C1506       C  0.13903797  0.60350225  0.48524922     0.37400
N1507       N  0.16671307  0.59833710  0.46426578    -0.89100
H1508       H  0.11475739  0.56037816  0.46830665     0.18600
H1509       H  0.10972770  0.65409942  0.54495424     0.18500
N1510       N  0.06163948  0.61323978  0.55435580    -0.88200
H1511       H  0.15830652  0.59725147  0.44018743     0.35900
H1512       H  0.17720167  0.57562793  0.47008111     0.41000
H1513       H  0.04609478  0.59312254  0.55512633     0.40600
H1514       H  0.04742888  0.63387751  0.54867461     0.35500
C1515       C  0.13777879  0.39278067  0.46822633    -0.26200
C1516       C  0.13794441  0.36607808  0.48997501    -0.14300
C1517       C  0.11254900  0.36367112  0.51339963     0.36400
C1518       C  0.08842476  0.38825806  0.51532816    -0.25600
C1519       C  0.08856937  0.41489782  0.49372975    -0.14900
C1520       C  0.11322491  0.41696601  0.46980104     0.37400
N1521       N  0.11308087  0.44343130  0.44680293    -0.89100
H1522       H  0.15696942  0.39511105  0.45007611     0.18600
H1523       H  0.06918319  0.38633330  0.53349179     0.18500
N1524       N  0.11054153  0.33585567  0.53464533    -0.88200
H1525       H  0.11187894  0.43348448  0.42332169     0.35900
H1526       H  0.13527650  0.45580368  0.44890206     0.41000
H1527       H  0.08798128  0.32460658  0.53077123     0.40600
H1528       H  0.11099441  0.34425209  0.55875618     0.35500
C1529       C  0.89277137  0.41702225  0.46981939    -0.26200
C1530       C  0.91831679  0.41421399  0.49250607    -0.14300
C1531       C  0.91844806  0.38787668  0.51477626     0.36400
C1532       C  0.89306120  0.36496956  0.51407627    -0.25600
C1533       C  0.86687953  0.36827574  0.49199215    -0.14900
C1534       C  0.86683452  0.39476026  0.46977996     0.37400
N1535       N  0.83984508  0.40002924  0.44807783    -0.89100
H1536       H  0.89243173  0.43731904  0.45272454     0.18600
H1537       H  0.89367877  0.34468073  0.53116362     0.18500
N1538       N  0.94397282  0.38472848  0.53855278    -0.88200
H1539       H  0.84890487  0.40016565  0.42416896     0.35900
H1540       H  0.82984408  0.42316919  0.45293094     0.41000
H1541       H  0.95539550  0.36196029  0.53526220     0.40600
H1542       H  0.93321190  0.38492646  0.56175402     0.35500
C1543       C  0.91056144  0.60599198  0.47716669    -0.26200
C1544       C  0.91734489  0.58555396  0.50390592    -0.14300
C1545       C  0.90073400  0.59120588  0.53384440     0.36400
C1546       C  0.87617358  0.61526170  0.53531076    -0.25600
C1547       C  0.86981193  0.63629014  0.50877888    -0.14900
C1548       C  0.88889451  0.63268407  0.48001587     0.37400
N1549       N  0.88723622  0.65670362  0.45432305    -0.89100
H1550       H  0.92369634  0.60212576  0.45444114     0.18600
H1551       H  0.86221126  0.61754654  0.55770977     0.18500
N1552       N  0.90842092  0.57364065  0.56338303    -0.88200
H1553       H  0.90319975  0.65058655  0.43523752     0.35900
H1554       H  0.89547760  0.67885467  0.46394280     0.41000
H1555       H  0.92843633  0.55787685  0.56049306     0.40600
H1556       H  0.88817868  0.55941496  0.56961270     0.35500
C1557       C  0.49265786  0.11934085  0.57111993    -0.26200
C1558       C  0.51656890  0.09462254  0.57412236    -0.14300
C1559       C  0.54036373  0.09704303  0.59911875     0.36400
C1560       C  0.53809199  0.12275000  0.62167074    -0.25600
C1561       C  0.51343309  0.14688977  0.61931063    -0.14900
C1562       C  0.49131983  0.14567857  0.59293734     0.37400
N1563       N  0.46776445  0.17136770  0.58787370    -0.89100
H1564       H  0.47470353  0.11807322  0.55170552     0.18600
H1565       H  0.55554170  0.12349938  0.64154774     0.18500
N1566       N  0.56719273  0.07423591  0.60226011    -0.88200
H1567       H  0.44444135  0.16100411  0.58800983     0.35900
H1568       H  0.47179474  0.18138037  0.56469844     0.41000
H1569       H  0.56785452  0.05741244  0.58312753     0.40600
H1570       H  0.56379301  0.06106411  0.62391379     0.35500
C1571       C  0.51200509  0.07676008  0.38060470    -0.26200
C1572       C  0.49214270  0.08233046  0.40804681    -0.14300
C1573       C  0.47087834  0.10980984  0.40844983     0.36400
C1574       C  0.47163142  0.13222762  0.38257248    -0.25600
C1575       C  0.49251110  0.12738881  0.35564441    -0.14900
C1576       C  0.51199669  0.09855987  0.35423956     0.37400
N1577       N  0.53069418  0.08987466  0.32583231    -0.89100
H1578       H  0.52752616  0.05511795  0.37962419     0.18600
H1579       H  0.45587215  0.15369126  0.38356403     0.18500
N1580       N  0.44766443  0.11500045  0.43426789    -0.88200
H1581       H  0.54926757  0.10685923  0.32221926     0.35900
H1582       H  0.51514550  0.09020583  0.30558103     0.41000
H1583       H  0.43295828  0.09424597  0.43607888     0.40600
H1584       H  0.46014882  0.11788859  0.45627322     0.35500
C1585       C  0.50522514  0.88796620  0.37006681    -0.26200
C1586       C  0.48379150  0.86167640  0.37497319    -0.14300
C1587       C  0.46297222  0.86184089  0.40269886     0.36400
C1588       C  0.46342291  0.88847497  0.42409125    -0.25600
C1589       C  0.48552069  0.91421381  0.41962413    -0.14900
C1590       C  0.50682488  0.91385339  0.39246071     0.37400
N1591       N  0.53040011  0.93946577  0.38813086    -0.89100
H1592       H  0.52139191  0.88786209  0.34903447     0.18600
H1593       H  0.44733623  0.88848016  0.44518749     0.18500
N1594       N  0.44281804  0.83451747  0.41108218    -0.88200
H1595       H  0.54419162  0.93558073  0.36690909     0.35900
H1596       H  0.54678067  0.93816478  0.40768722     0.41000
H1597       H  0.45744115  0.81338785  0.41178037     0.40600
H1598       H  0.42467274  0.83170128  0.39347428     0.35500
C1599       C  0.53276748  0.90474336  0.59377217    -0.26200
C1600       C  0.50438679  0.92372375  0.58915739    -0.14300
C1601       C  0.47730489  0.91898257  0.61020080     0.36400
C1602       C  0.48018753  0.89700777  0.63633102    -0.25600
C1603       C  0.50809576  0.87681596  0.64037743    -0.14900
C1604       C  0.53425608  0.88010954  0.61774945     0.37400
N1605       N  0.56161541  0.85772884  0.61807186    -0.89100
H1606       H  0.55329290  0.90805598  0.57729676     0.18600
H1607       H  0.45984787  0.89548325  0.65323183     0.18500
N1608       N  0.44629136  0.93528072  0.60547242    -0.88200
H1609       H  0.57846482  0.86353884  0.59973039     0.35900
H1610       H  0.55271471  0.83445159  0.61260332     0.41000
H1611       H  0.44599216  0.94962023  0.58437261     0.40600
H1612       H  0.44229506  0.95089392  0.62532858     0.35500
loop_ 
_geom_bond_atom_site_label_1 
_geom_bond_atom_site_label_2 
_geom_bond_distance 
_geom_bond_site_symmetry_2 
_ccdc_geom_bond_type 
N1            C6   1.350   1_545  A
N1            C5   1.352       .  A
N1           H33   1.039       .  S
N2            C9   1.350       .  A
N2           C10   1.349       .  A
N3            C8   1.354   1_545  A
N3            C7   1.354       .  A
N3           H34   1.038       .  S
N4           C11   1.353       .  A
N4           C12   1.352       .  A
C5           C13   1.387       .  A
C5           C21   1.413       .  A
C6           C22   1.412       .  A
C6           C14   1.387       .  A
C7           C15   1.386       .  A
C7           C24   1.418       .  A
C8           C23   1.420       .  A
C8           C16   1.388       .  A
C9           C21   1.411       .  A
C9           C17   1.386       .  A
C10          C24   1.411       .  A
C10          C18   1.386       .  A
C11          C19   1.386       .  A
C11          C22   1.415       .  A
C12          C20   1.388       .  A
C12          C23   1.417       .  A
C13          C14   1.376   1_545  A
C13          H25   1.082       .  S
C14          H26   1.082       .  S
C15          C16   1.374   1_545  A
C15          H27   1.082       .  S
C16          H28   1.081       .  S
C17          C18   1.373       .  A
C17          H29   1.082       .  S
C18          H30   1.082       .  S
C19          C20   1.369       .  A
C19          H31   1.082       .  S
C20          H32   1.081       .  S
C21        C1572   1.488       .  S
C22        C1589   1.489       .  S
C23        C1600   1.492       .  S
C24        C1558   1.491       .  S
N35          C40   1.354       .  A
N35          C39   1.355       .  A
N35          H67   1.037       .  S
N36          C43   1.350   1_455  A
N36          C44   1.351       .  A
N37          C42   1.352       .  A
N37          C41   1.352       .  A
N37          H68   1.040       .  S
N38          C45   1.350   1_455  A
N38          C46   1.351       .  A
C39          C47   1.388       .  A
C39          C55   1.422       .  A
C40          C56   1.418       .  A
C40          C48   1.386       .  A
C41          C49   1.387       .  A
C41          C58   1.414       .  A
C42          C57   1.411       .  A
C42          C50   1.386       .  A
C43          C55   1.417       .  A
C43          C51   1.390       .  A
C44          C58   1.412       .  A
C44          C52   1.384       .  A
C45          C53   1.386       .  A
C45          C56   1.412       .  A
C46          C54   1.386       .  A
C46          C57   1.410       .  A
C47          C48   1.373       .  A
C47          H59   1.081       .  S
C48          H60   1.082       .  S
C49          C50   1.376       .  A
C49          H61   1.082       .  S
C50          H62   1.082       .  S
C51          C52   1.370   1_655  A
C51          H63   1.080       .  S
C52          H64   1.082       .  S
C53          C54   1.373   1_655  A
C53          H65   1.082       .  S
C54          H66   1.082       .  S
C55        C1544   1.492       .  S
C56        C1530   1.491       .  S
C57        C1519   1.487       .  S
C58        C1502   1.492       .  S
N69          C74   1.351       .  A
N69          C73   1.349       .  A
N69         H101   1.045       .  S
N70          C77   1.354       .  A
N70          C78   1.353   1_556  A
N71          C76   1.354       .  A
N71          C75   1.352       .  A
N71         H102   1.045       .  S
N72          C79   1.348       .  A
N72          C80   1.348   1_556  A
C73          C81   1.390       .  A
C73          C89   1.415       .  A
C74          C90   1.413       .  A
C74          C82   1.386       .  A
C75          C83   1.389       .  A
C75          C92   1.420       .  A
C76          C91   1.418       .  A
C76          C84   1.386       .  A
C77          C89   1.417       .  A
C77          C85   1.385       .  A
C78          C92   1.419       .  A
C78          C86   1.388       .  A
C79          C87   1.386       .  A
C79          C90   1.407       .  A
C80          C88   1.387       .  A
C80          C91   1.409       .  A
C81          C82   1.371       .  A
C81          H93   1.080       .  S
C82          H94   1.083       .  S
C83          C84   1.374       .  A
C83          H95   1.081       .  S
C84          H96   1.083       .  S
C85          C86   1.369   1_556  A
C85          H97   1.082       .  S
C86          H98   1.082       .  S
C87          C88   1.372   1_556  A
C87          H99   1.082       .  S
C88         H100   1.082       .  S
C89        C1474   1.488       .  S
C90        C1488   1.482       .  S
C91        C1463   1.487       .  S
C92        C1446   1.493       .  S
N103        C108   1.353   1_455  A
N103        C107   1.352   1_455  A
N103        H135   1.040       .  S
N104        C111   1.351       .  A
N104        C112   1.352   1_554  A
N105        C110   1.354       .  A
N105        C109   1.355       .  A
N105        H136   1.039       .  S
N106        C113   1.353   1_556  A
N106        C114   1.351       .  A
C107        C115   1.387       .  A
C107        C123   1.414   1_655  A
C108        C124   1.413   1_655  A
C108        C116   1.386       .  A
C109        C117   1.385       .  A
C109        C126   1.417       .  A
C110        C125   1.420       .  A
C110        C118   1.390       .  A
C111        C123   1.414       .  A
C111        C119   1.387       .  A
C112        C126   1.413       .  A
C112        C120   1.386       .  A
C113        C121   1.385       .  A
C113        C124   1.414       .  A
C114        C122   1.388       .  A
C114        C125   1.416       .  A
C115        C116   1.376       .  A
C115        H127   1.082       .  S
C116        H128   1.082       .  S
C117        C118   1.369       .  A
C117        H129   1.082       .  S
C118        H130   1.080       .  S
C119        C120   1.374   1_554  A
C119        H131   1.082       .  S
C120        H132   1.082       .  S
C121        C122   1.369   1_554  A
C121        H133   1.082       .  S
C122        H134   1.081       .  S
C123       C1432   1.488   1_455  S
C124       C1407   1.492       .  S
C125       C1390   1.490       .  S
C126       C1418   1.496       .  S
N137        C142   1.355       .  A
N137        C141   1.356   1_545  A
N137        H169   1.038       .  S
N138        C145   1.352       .  A
N138        C146   1.353       .  A
N139        C144   1.353   1_566  A
N139        C143   1.351   1_556  A
N139        H170   1.040       .  S
N140        C147   1.349       .  A
N140        C148   1.351       .  A
C141        C149   1.389   1_556  A
C141        C157   1.423       .  A
C142        C158   1.418       .  A
C142        C150   1.385   1_556  A
C143        C151   1.387       .  A
C143        C160   1.411       .  A
C144        C159   1.413   1_554  A
C144        C152   1.387       .  A
C145        C157   1.419       .  A
C145        C153   1.389       .  A
C146        C160   1.413   1_556  A
C146        C154   1.384       .  A
C147        C155   1.386       .  A
C147        C158   1.411       .  A
C148        C156   1.386       .  A
C148        C159   1.413       .  A
C149        C150   1.373   1_565  A
C149        H161   1.080       .  S
C150        H162   1.082       .  S
C151        C152   1.375   1_565  A
C151        H163   1.082       .  S
C152        H164   1.082       .  S
C153        C154   1.371       .  A
C153        H165   1.081       .  S
C154        H166   1.082       .  S
C155        C156   1.375       .  A
C155        H167   1.082       .  S
C156        H168   1.082       .  S
C157       C1365   1.496   1_556  S
C158       C1376   1.492       .  S
C159       C1348   1.492       .  S
C160       C1334   1.489       .  S
O171        C187   1.273       .  A
O171       Zn177   2.016       .  S
C172       C1292   1.483       .  S
C172        O188   1.275       .  A
C172        O185   1.275       .  A
O173        C186   1.277       .  A
O173       Cd180   2.075       .  S
O174        C192   1.276       .  A
O174       Cd183   2.078       .  S
O175        C189   1.277       .  A
O175       Cd179   2.072       .  S
O176        C187   1.273       .  A
O176       Cd179   2.069       .  S
Zn177       O188   2.037       .  S
Zn177       O190   2.022       .  S
Zn177       O182   1.957       .  S
O178        C189   1.274       .  A
O178       Cd183   2.070       .  S
Cd179       O181   2.076       .  S
Cd179       O182   2.002       .  S
Cd180       O184   2.096       .  S
Cd180       O193   2.096       .  S
Cd180       O182   2.004       .  S
O181        C191   1.275       .  A
O182       Cd183   2.003       .  S
Cd183       O185   2.065       .  S
O184        C191   1.279       .  A
C186       C1264   1.486       .  S
C186        O190   1.275       .  A
C187       C1320   1.478       .  S
C189       C1306   1.481       .  S
C191       C1250   1.500       .  S
C192       C1278   1.496       .  S
C192        O193   1.280       .  A
O194        C210   1.274       .  A
O194       Zn200   2.028       .  S
C195       C1236   1.485       .  S
C195        O211   1.276       .  A
C195        O208   1.276       .  A
O196        C209   1.276       .  A
O196       Cd203   2.077       .  S
O197        C215   1.278       .  A
O197       Cd206   2.083       .  S
O198        C212   1.272       .  A
O198       Cd202   2.060       .  S
O199        C210   1.272       .  A
O199       Cd202   2.051       .  S
Zn200       O211   2.023       .  S
Zn200       O213   2.034       .  S
Zn200       O205   1.947       .  S
O201        C212   1.277       .  A
O201       Cd206   2.083       .  S
Cd202       O204   2.067       .  S
Cd202       O205   1.995       .  S
Cd203       O207   2.074       .  S
Cd203       O216   2.078       .  S
Cd203       O205   2.000       .  S
O204        C214   1.274       .  A
O205       Cd206   2.004       .  S
Cd206       O208   2.085       .  S
O207        C214   1.275       .  A
C209       C1166   1.495       .  S
C209        O213   1.278       .  A
C210       C1197   1.477       .  S
C212       C1222   1.480       .  S
C214       C1211   1.485       .  S
C215       C1180   1.497       .  S
C215        O216   1.276       .  A
O217        C233   1.275       .  A
O217       Zn223   2.035       .  S
C218       C1141   1.486       .  S
C218        O234   1.275       .  A
C218        O231   1.277       .  A
O219        C232   1.275       .  A
O219       Cd226   2.068       .  S
O220        C238   1.275       .  A
O220       Cd229   2.072       .  S
O221        C235   1.276       .  A
O221       Cd225   2.083       .  S
O222        C233   1.274       .  A
O222       Cd225   2.073       .  S
Zn223       O234   2.021       .  S
Zn223       O236   2.032       .  S
Zn223       O228   1.951       .  S
O224        C235   1.277       .  A
O224       Cd229   2.083       .  S
Cd225       O227   2.081       .  S
Cd225       O228   2.007       .  S
Cd226       O230   2.077       .  S
Cd226       O239   2.081       .  S
Cd226       O228   2.011       .  S
O227        C237   1.278       .  A
O228       Cd229   2.007       .  S
Cd229       O231   2.095       .  S
O230        C237   1.275       .  A
C232       C1124   1.491       .  S
C232        O236   1.276       .  A
C233       C1110   1.477       .  S
C235       C1152   1.480       .  S
C237       C1082   1.496       .  S
C238       C1099   1.484       .  S
C238        O239   1.276       .  A
O240        C256   1.277       .  A
O240       Zn246   2.046       .  S
C241       C1015   1.482       .  S
C241        O257   1.277       .  A
C241        O254   1.273       .  A
O242        C255   1.278       .  A
O242       Cd249   2.094       .  S
O243        C261   1.275       .  A
O243       Cd252   2.068       .  S
O244        C258   1.275       .  A
O244       Cd248   2.080       .  S
O245        C256   1.275       .  A
O245       Cd248   2.064       .  S
Zn246       O257   2.047       .  S
Zn246       O259   2.023       .  S
Zn246       O251   1.959       .  S
O247        C258   1.273       .  A
O247       Cd252   2.066       .  S
Cd248       O250   2.078       .  S
Cd248       O251   2.003       .  S
Cd249       O253   2.101       .  S
Cd249       O262   2.089       .  S
Cd249       O251   2.013       .  S
O250        C260   1.275       .  A
O251       Cd252   2.003       .  S
Cd252       O254   2.068       .  S
O253        C260   1.280       .  A
C255       C1026   1.491       .  S
C255        O259   1.274       .  A
C256       C1054   1.480       .  S
C258        C998   1.481       .  S
C260       C1040   1.501       .  S
C261       C1068   1.495       .  S
C261        O262   1.279       .  A
O263        C279   1.275       .  A
O263       Zn269   2.042       .  S
C264        C984   1.489       .  S
C264        O280   1.273       .  A
C264        O277   1.279       .  A
O265        C278   1.277       .  A
O265       Cd272   2.087       .  S
O266        C284   1.277       .  A
O266       Cd275   2.079       .  S
O267        C281   1.272       .  A
O267       Cd271   2.064       .  S
O268        C279   1.272       .  A
O268       Cd271   2.063       .  S
Zn269       O280   2.010       .  S
Zn269       O282   2.005       .  S
Zn269       O274   1.947       .  S
O270        C281   1.278       .  A
O270       Cd275   2.094       .  S
Cd271       O273   2.055       .  S
Cd271       O274   1.992       .  S
Cd272       O276   2.100       .  S
Cd272       O285   2.090       .  S
Cd272       O274   2.022       .  S
O273        C283   1.273       .  A
O274       Cd275   2.012       .  S
Cd275       O277   2.105       .  S
O276        C283   1.279       .  A
C278        C928   1.492       .  S
C278        O282   1.274       .  A
C279        C942   1.488       .  S
C281        C970   1.475       .  S
C283        C956   1.496       .  S
C284        C917   1.488       .  S
C284        O285   1.278       .  A
O286        C302   1.275       .  A
O286       Zn292   2.015       .  S
C287        C903   1.481       .  S
C287        O303   1.275       .  A
C287        O300   1.274       .  A
O288        C301   1.277       .  A
O288       Cd295   2.080       .  S
O289        C307   1.274       .  A
O289       Cd298   2.065       .  S
O290        C304   1.278       .  A
O290       Cd294   2.089       .  S
O291        C302   1.277       .  A
O291       Cd294   2.094       .  S
Zn292       O303   2.039       .  S
Zn292       O305   2.031       .  S
Zn292       O297   1.958       .  S
O293        C304   1.275       .  A
O293       Cd298   2.074       .  S
Cd294       O296   2.085       .  S
Cd294       O297   2.014       .  S
Cd295       O299   2.098       .  S
Cd295       O308   2.106       .  S
Cd295       O297   2.017       .  S
O296        C306   1.278       .  A
O297       Cd298   1.998       .  S
Cd298       O300   2.063       .  S
O299        C306   1.279       .  A
C301        C844   1.492       .  S
C301        O305   1.276       .  A
C302        C858   1.488       .  S
C304        C872   1.483       .  S
C306        C886   1.494       .  S
C307        C830   1.500       .  S
C307        O308   1.279       .  A
O309        C325   1.277       .  A
O309       Zn315   2.043       .  S
C310        C788   1.487       .  S
C310        O326   1.277       .  A
C310        O323   1.276       .  A
O311        C324   1.278       .  A
O311       Cd318   2.081       .  S
O312        C330   1.278       .  A
O312       Cd321   2.084       .  S
O313        C327   1.275       .  A
O313       Cd317   2.064       .  S
O314        C325   1.273       .  A
O314       Cd317   2.073       .  S
Zn315       O326   2.042       .  S
Zn315       O328   2.020       .  S
Zn315       O320   1.954       .  S
O316        C327   1.276       .  A
O316       Cd321   2.083       .  S
Cd317       O319   2.063       .  S
Cd317       O320   1.998       .  S
Cd318       O322   2.093       .  S
Cd318       O331   2.095       .  S
Cd318       O320   2.016       .  S
O319        C329   1.275       .  A
O320       Cd321   2.004       .  S
Cd321       O323   2.077       .  S
O322        C329   1.277       .  A
C324        C802   1.489       .  S
C324        O328   1.276       .  A
C325        C774   1.490       .  S
C327        C819   1.484       .  S
C329        C760   1.495       .  S
C330        C746   1.502       .  S
C330        O331   1.278       .  A
N332        C337   1.351       .  A
N332        C336   1.353   1_655  A
N332        H364   1.039   1_565  S
N333        C340   1.352       .  A
N333        C341   1.350       .  A
N334        C339   1.354       .  A
N334        C338   1.354   1_655  A
N334        H365   1.038       .  S
N335        C342   1.352   1_565  A
N335        C343   1.352   1_565  A
C336        C344   1.387       .  A
C336        C352   1.415   1_565  A
C337        C353   1.413       .  A
C337        C345   1.387       .  A
C338        C346   1.386   1_545  A
C338        C355   1.416       .  A
C339        C354   1.420       .  A
C339        C347   1.389   1_545  A
C340        C352   1.414       .  A
C340        C348   1.386       .  A
C341        C355   1.412       .  A
C341        C349   1.385       .  A
C342        C350   1.385       .  A
C342        C353   1.414   1_545  A
C343        C351   1.388       .  A
C343        C354   1.415       .  A
C344        C345   1.376   1_455  A
C344        H356   1.082       .  S
C345        H357   1.082       .  S
C346        C347   1.373   1_455  A
C346        H358   1.082       .  S
C347        H359   1.081       .  S
C348        C349   1.373       .  A
C348        H360   1.082       .  S
C349        H361   1.082       .  S
C350        C351   1.370       .  A
C350        H362   1.082       .  S
C351        H363   1.081       .  S
C352        C735   1.493       .  S
C353        C718   1.488       .  S
C354        C690   1.489       .  S
C355        C704   1.490       .  S
C366        C367   1.406       .  A
C366        C371   1.410   1_545  A
C366        C676   1.492       .  S
C367        C368   1.401   1_545  A
C367        H372   1.082       .  S
C368        C369   1.403       .  A
C368        C707   1.494       .  S
C369        C370   1.407       .  A
C369        H373   1.083       .  S
C370        C371   1.410       .  A
C370        C900   1.495       .  S
C371        H374   1.083       .  S
O375        C391   1.276       .  A
O375       Zn381   2.034       .  S
C376        C662   1.481       .  S
C376        O392   1.277       .  A
C376        O389   1.276       .  A
O377        C390   1.276       .  A
O377       Cd384   2.072       .  S
O378        C396   1.275       .  A
O378       Cd387   2.070       .  S
O379        C393   1.275       .  A
O379       Cd383   2.082       .  S
O380        C391   1.276       .  A
O380       Cd383   2.073       .  S
Zn381       O392   2.032       .  S
Zn381       O394   2.039       .  S
Zn381       O386   1.954       .  S
O382        C393   1.275       .  A
O382       Cd387   2.071       .  S
Cd383       O385   2.076       .  S
Cd383       O386   2.005       .  S
Cd384       O388   2.086       .  S
Cd384       O397   2.084       .  S
Cd384       O386   2.007       .  S
O385        C395   1.276       .  A
O386       Cd387   2.003       .  S
Cd387       O389   2.084       .  S
O388        C395   1.278       .  A
C390        C620   1.492       .  S
C390        O394   1.277       .  A
C391        C651   1.483       .  S
C393        C679   1.481       .  S
C395        C634   1.497       .  S
C396        C606   1.488       .  S
C396        O397   1.276       .  A
C398        C399   1.405       .  A
C398        C403   1.405   1_455  A
C398        C665   1.483       .  S
C399        C400   1.405   1_455  A
C399        H404   1.084       .  S
C400        C401   1.402       .  A
C400       C1404   1.492       .  S
C401        C402   1.404       .  A
C401        H405   1.083       .  S
C402        C403   1.409       .  A
C402        C816   1.488       .  S
C403        H406   1.083       .  S
C407        C408   1.405       .  A
C407        C412   1.409       .  A
C407       C1071   1.484       .  S
C408        C409   1.400       .  A
C408        H413   1.083       .  S
C409        C410   1.400   1_556  A
C409       C1351   1.483       .  S
C410        C411   1.405       .  A
C410        H414   1.084       .  S
C411        C412   1.409   1_554  A
C411        C648   1.489       .  S
C412        H415   1.083       .  S
C416        C417   1.402       .  A
C416        C421   1.404       .  A
C416        C805   1.478       .  S
C417        C418   1.402       .  A
C417        H422   1.083       .  S
C418        C419   1.403       .  A
C418       C1575   1.484       .  S
C419        C420   1.404       .  A
C419        H423   1.084       .  S
C420        C421   1.406       .  A
C420        C637   1.480       .  S
C421        H424   1.084       .  S
C425        C426   1.404       .  A
C425        C430   1.411       .  A
C425        C973   1.493       .  S
C426        C427   1.405   1_565  A
C426        H431   1.082       .  S
C427        C428   1.405       .  A
C427        C693   1.501       .  S
C428        C429   1.406       .  A
C428        H432   1.080       .  S
C429        C430   1.411   1_545  A
C429        C791   1.496       .  S
C430        H433   1.083       .  S
C434        C435   1.405       .  A
C434        C439   1.411       .  A
C434       C1138   1.491       .  S
C435        C436   1.404       .  A
C435        H440   1.083       .  S
C436        C437   1.405   1_556  A
C436       C1379   1.495       .  S
C437        C438   1.405       .  A
C437        H441   1.082       .  S
C438        C439   1.411   1_554  A
C438        C777   1.491       .  S
C439        H442   1.083       .  S
C443        C444   1.403       .  A
C443        C448   1.403       .  A
C443        C763   1.477       .  S
C444        C445   1.404       .  A
C444        H449   1.084       .  S
C445        C446   1.403       .  A
C445        C931   1.478       .  S
C446        C447   1.403       .  A
C446        H450   1.084       .  S
C447        C448   1.406       .  A
C447       C1460   1.489       .  S
C448        H451   1.083       .  S
C452        C453   1.408       .  A
C452        C457   1.405       .  A
C452        C749   1.486       .  S
C453        C454   1.407       .  A
C453        H458   1.083       .  S
C454        C455   1.401       .  A
C454       C1085   1.479       .  S
C455        C456   1.402       .  A
C455        H459   1.084       .  S
C456        C457   1.404       .  A
C456       C1533   1.489       .  S
C457        H460   1.083       .  S
C461        C462   1.404       .  A
C461        C466   1.409       .  A
C461        C623   1.487       .  S
C462        C463   1.407       .  A
C462        H467   1.082       .  S
C463        C464   1.408       .  A
C463       C1449   1.500       .  S
C464        C465   1.404       .  A
C464        H468   1.081       .  S
C465        C466   1.407       .  A
C465        C889   1.490       .  S
C466        H469   1.083       .  S
C470        C471   1.408   1_455  A
C470        C475   1.400       .  A
C470        C875   1.484       .  S
C471        C472   1.410       .  A
C471        H476   1.083       .  S
C472        C473   1.408       .  A
C472        C987   1.490       .  S
C473        C474   1.405       .  A
C473        H477   1.083       .  S
C474        C475   1.401   1_655  A
C474       C1435   1.491       .  S
C475        H478   1.084       .  S
C479        C480   1.408       .  A
C479        C484   1.410       .  A
C479        C861   1.492       .  S
C480        C481   1.403   1_554  A
C480        H485   1.083       .  S
C481        C482   1.398       .  A
C481       C1225   1.476       .  S
C482        C483   1.402   1_556  A
C482        H486   1.084       .  S
C483        C484   1.406       .  A
C483       C1337   1.496       .  S
C484        H487   1.081       .  S
C488        C489   1.401       .  A
C488        C493   1.407       .  A
C488        C847   1.477       .  S
C489        C490   1.401       .  A
C489        H494   1.082       .  S
C490        C491   1.402       .  A
C490       C1586   1.483       .  S
C491        C492   1.402       .  A
C491        H495   1.084       .  S
C492        C493   1.407       .  A
C492        C959   1.481       .  S
C493        H496   1.083       .  S
C497        C498   1.406       .  A
C497        C502   1.412       .  A
C497       C1169   1.490       .  S
C498        C499   1.403       .  A
C498        H503   1.084       .  S
C499        C500   1.401       .  A
C499       C1505   1.489       .  S
C500        C501   1.401       .  A
C500        H504   1.084       .  S
C501        C502   1.409       .  A
C501        C833   1.484       .  S
C502        H505   1.083       .  S
C506        C507   1.407       .  A
C506        C511   1.408   1_556  A
C506       C1295   1.491       .  S
C507        C508   1.406   1_556  A
C507        H512   1.082       .  S
C508        C509   1.404       .  A
C508       C1362   1.502       .  S
C509        C510   1.405       .  A
C509        H513   1.078       .  S
C510        C511   1.407       .  A
C510        C945   1.488       .  S
C511        H514   1.082       .  S
C515        C516   1.404       .  A
C515        C520   1.406       .  A
C515        C609   1.481       .  S
C516        C517   1.406       .  A
C516        H521   1.084       .  S
C517        C518   1.403       .  A
C517       C1516   1.491       .  S
C518        C519   1.403       .  A
C518        H522   1.083       .  S
C519        C520   1.405       .  A
C519       C1057   1.483       .  S
C520        H523   1.083       .  S
C524        C525   1.401       .  A
C524        C529   1.410   1_655  A
C524       C1155   1.491       .  S
C525        C526   1.401   1_655  A
C525        H530   1.078       .  S
C526        C527   1.407       .  A
C526       C1393   1.499       .  S
C527        C528   1.406       .  A
C527        H531   1.082       .  S
C528        C529   1.412       .  A
C528       C1043   1.493       .  S
C529        H532   1.083       .  S
C533        C534   1.409       .  A
C533        C538   1.402       .  A
C533       C1029   1.485       .  S
C534        C535   1.411   1_545  A
C534        H539   1.081       .  S
C535        C536   1.408       .  A
C535       C1239   1.494       .  S
C536        C537   1.403   1_565  A
C536        H540   1.083       .  S
C537        C538   1.402       .  A
C537        C732   1.489       .  S
C538        H541   1.084       .  S
C542        C543   1.401       .  A
C542        C547   1.405       .  A
C542       C1127   1.478       .  S
C543        C544   1.402       .  A
C543        H548   1.084       .  S
C544        C545   1.404       .  A
C544       C1561   1.488       .  S
C545        C546   1.406       .  A
C545        H549   1.082       .  S
C546        C547   1.409       .  A
C546       C1012   1.492       .  S
C547        H550   1.083       .  S
C551        C552   1.403       .  A
C551        C556   1.402       .  A
C551       C1001   1.482       .  S
C552        C553   1.406       .  A
C552        H557   1.081       .  S
C553        C554   1.409       .  A
C553       C1477   1.502       .  S
C554        C555   1.403       .  A
C554        H558   1.082       .  S
C555        C556   1.402       .  A
C555       C1208   1.476       .  S
C556        H559   1.082       .  S
C560        C561   1.403       .  A
C560        C565   1.409   1_565  A
C560       C1309   1.487       .  S
C561        C562   1.398   1_565  A
C561        H566   1.083       .  S
C562        C563   1.403       .  A
C562        C721   1.489       .  S
C563        C564   1.407       .  A
C563        H567   1.083       .  S
C564        C565   1.411       .  A
C564       C1113   1.492       .  S
C565        H568   1.083       .  S
C569        C570   1.406       .  A
C569        C574   1.405   1_655  A
C569       C1323   1.482       .  S
C570        C571   1.404   1_655  A
C570        H575   1.083       .  S
C571        C572   1.401       .  A
C571       C1421   1.492       .  S
C572        C573   1.405       .  A
C572        H576   1.083       .  S
C573        C574   1.405       .  A
C573       C1194   1.485       .  S
C574        H577   1.082       .  S
C578        C579   1.400       .  A
C578        C583   1.404       .  A
C578       C1183   1.479       .  S
C579        C580   1.408       .  A
C579        H584   1.082       .  S
C580        C581   1.410       .  A
C580       C1603   1.503       .  S
C581        C582   1.404       .  A
C581        H585   1.081       .  S
C582        C583   1.406       .  A
C582       C1281   1.484       .  S
C583        H586   1.083       .  S
C587        C588   1.408       .  A
C587        C592   1.405       .  A
C587       C1096   1.483       .  S
C588        C589   1.404       .  A
C588        H593   1.084       .  S
C589        C590   1.397       .  A
C589       C1267   1.474       .  S
C590        C591   1.399       .  A
C590        H594   1.084       .  S
C591        C592   1.404       .  A
C591       C1491   1.484       .  S
C592        H595   1.084       .  S
C596        C597   1.400       .  A
C596        C601   1.408       .  A
C596        C914   1.486       .  S
C597        C598   1.403       .  A
C597        H602   1.082       .  S
C598        C599   1.408       .  A
C598       C1547   1.496       .  S
C599        C600   1.406       .  A
C599        H603   1.083       .  S
C600        C601   1.411       .  A
C600       C1253   1.492       .  S
C601        H604   1.083       .  S
C605        C606   1.407       .  A
C605        C610   1.399       .  A
C605        H612   1.084       .  S
C606        C607   1.417       .  A
C607        C608   1.410       .  A
C607        N614   1.438       .  S
C608        C609   1.403       .  A
C608        H613   1.084       .  S
C609        C610   1.409       .  A
C610        N611   1.433       .  S
N611        H615   1.045       .  S
N611        H616   1.045       .  S
N614        H617   1.045       .  S
N614        H618   1.046       .  S
C619        C620   1.407       .  A
C619        C624   1.406       .  A
C619        H626   1.084       .  S
C620        C621   1.418       .  A
C621        C622   1.408       .  A
C621        N628   1.438       .  S
C622        C623   1.402       .  A
C622        H627   1.084       .  S
C623        C624   1.409       .  A
C624        N625   1.432       .  S
N625        H629   1.046       .  S
N625        H630   1.046       .  S
N628        H631   1.046       .  S
N628        H632   1.046       .  S
C633        C634   1.410       .  A
C633        C638   1.402       .  A
C633        H640   1.083       .  S
C634        C635   1.419       .  A
C635        C636   1.405       .  A
C635        N642   1.432       .  S
C636        C637   1.400       .  A
C636        H641   1.084       .  S
C637        C638   1.411       .  A
C638        N639   1.433       .  S
N639        H643   1.045       .  S
N639        H644   1.046       .  S
N642        H645   1.046       .  S
N642        H646   1.046       .  S
C647        C648   1.405       .  A
C647        C652   1.410       .  A
C647        H654   1.083       .  S
C648        C649   1.413       .  A
C649        C650   1.404       .  A
C649        N656   1.438       .  S
C650        C651   1.403       .  A
C650        H655   1.084       .  S
C651        C652   1.414       .  A
C652        N653   1.438       .  S
N653        H657   1.046       .  S
N653        H658   1.046       .  S
N656        H659   1.046       .  S
N656        H660   1.045       .  S
C661        C662   1.403       .  A
C661        C666   1.400       .  A
C661        H668   1.084       .  S
C662        C663   1.415       .  A
C663        C664   1.404       .  A
C663        N670   1.432       .  S
C664        C665   1.404       .  A
C664        H669   1.084       .  S
C665        C666   1.412       .  A
C666        N667   1.433       .  S
N667        H671   1.044       .  S
N667        H672   1.046       .  S
N670        H673   1.046       .  S
N670        H674   1.045       .  S
C675        C676   1.406       .  A
C675        C680   1.404       .  A
C675        H682   1.084       .  S
C676        C677   1.411       .  A
C677        C678   1.407       .  A
C677        N684   1.432       .  S
C678        C679   1.404       .  A
C678        H683   1.084       .  S
C679        C680   1.413       .  A
C680        N681   1.439       .  S
N681        H685   1.046       .  S
N681        H686   1.045       .  S
N684        H687   1.046       .  S
N684        H688   1.045       .  S
C689        C690   1.401       .  A
C689        C694   1.407       .  A
C689        H696   1.084       .  S
C690        C691   1.404   1_545  A
C691        C692   1.399       .  A
C691        N698   1.433       .  S
C692        C693   1.410   1_565  A
C692        H697   1.082       .  S
C693        C694   1.421       .  A
C694        N695   1.438       .  S
N695        H699   1.046       .  S
N695        H700   1.045       .  S
N698        H701   1.045       .  S
N698        H702   1.045       .  S
C703        C704   1.402       .  A
C703        C708   1.408       .  A
C703        H710   1.084       .  S
C704        C705   1.406   1_545  A
C705        C706   1.400       .  A
C705        N712   1.433       .  S
C706        C707   1.407       .  A
C706        H711   1.083       .  S
C707        C708   1.418   1_565  A
C708        N709   1.437       .  S
N709        H713   1.045       .  S
N709        H714   1.046       .  S
N712        H715   1.046       .  S
N712        H716   1.046       .  S
C717        C718   1.401   1_545  A
C717        C722   1.399       .  A
C717        H724   1.084       .  S
C718        C719   1.416       .  A
C719        C720   1.402       .  A
C719        N726   1.438       .  S
C720        C721   1.408   1_565  A
C720        H725   1.083       .  S
C721        C722   1.410       .  A
C722        N723   1.432       .  S
N723        H727   1.046       .  S
N723        H728   1.046       .  S
N726        H729   1.043       .  S
N726        H730   1.045       .  S
C731        C732   1.405       .  A
C731        C736   1.402       .  A
C731        H738   1.084       .  S
C732        C733   1.412   1_545  A
C733        C734   1.405       .  A
C733        N740   1.432       .  S
C734        C735   1.404   1_565  A
C734        H739   1.084       .  S
C735        C736   1.409       .  A
C736        N737   1.432       .  S
N737        H741   1.046       .  S
N737        H742   1.045       .  S
N740        H743   1.046       .  S
N740        H744   1.046       .  S
C745        C746   1.408       .  A
C745        C750   1.402       .  A
C745        H752   1.083       .  S
C746        C747   1.420       .  A
C747        C748   1.413       .  A
C747        N754   1.437       .  S
C748        C749   1.403       .  A
C748        H753   1.084       .  S
C749        C750   1.416       .  A
C750        N751   1.440       .  S
N751        H755   1.046       .  S
N751        H756   1.043       .  S
N754        H757   1.046       .  S
N754        H758   1.046       .  S
C759        C760   1.410       .  A
C759        C764   1.397       .  A
C759        H766   1.083       .  S
C760        C761   1.417       .  A
C761        C762   1.408       .  A
C761        N768   1.432       .  S
C762        C763   1.401       .  A
C762        H767   1.084       .  S
C763        C764   1.408       .  A
C764        N765   1.433       .  S
N765        H769   1.046       .  S
N765        H770   1.045       .  S
N768        H771   1.046       .  S
N768        H772   1.046       .  S
C773        C774   1.404       .  A
C773        C778   1.400       .  A
C773        H780   1.084       .  S
C774        C775   1.420       .  A
C775        C776   1.405       .  A
C775        N782   1.433       .  S
C776        C777   1.405       .  A
C776        H781   1.084       .  S
C777        C778   1.417       .  A
C778        N779   1.434       .  S
N779        H783   1.046       .  S
N779        H784   1.042       .  S
N782        H785   1.045       .  S
N782        H786   1.045       .  S
C787        C788   1.405       .  A
C787        C792   1.411       .  A
C787        H794   1.084       .  S
C788        C789   1.412       .  A
C789        C790   1.406       .  A
C789        N796   1.438       .  S
C790        C791   1.407       .  A
C790        H795   1.084       .  S
C791        C792   1.415       .  A
C792        N793   1.438       .  S
N793        H797   1.045       .  S
N793        H798   1.046       .  S
N796        H799   1.046       .  S
N796        H800   1.046       .  S
C801        C802   1.406       .  A
C801        C806   1.406       .  A
C801        H808   1.083       .  S
C802        C803   1.418       .  A
C803        C804   1.407       .  A
C803        N810   1.438       .  S
C804        C805   1.400       .  A
C804        H809   1.084       .  S
C805        C806   1.409       .  A
C806        N807   1.438       .  S
N807        H811   1.045       .  S
N807        H812   1.045       .  S
N810        H813   1.046       .  S
N810        H814   1.046       .  S
C815        C816   1.405       .  A
C815        C820   1.401       .  A
C815        H822   1.084       .  S
C816        C817   1.410       .  A
C817        C818   1.407       .  A
C817        N824   1.432       .  S
C818        C819   1.406       .  A
C818        H823   1.084       .  S
C819        C820   1.412       .  A
C820        N821   1.433       .  S
N821        H825   1.046       .  S
N821        H826   1.046       .  S
N824        H827   1.045       .  S
N824        H828   1.046       .  S
C829        C830   1.411       .  A
C829        C834   1.411       .  A
C829        H836   1.083       .  S
C830        C831   1.419       .  A
C831        C832   1.403       .  A
C831        N838   1.433       .  S
C832        C833   1.400       .  A
C832        H837   1.084       .  S
C833        C834   1.407       .  A
C834        N835   1.432       .  S
N835        H839   1.045       .  S
N835        H840   1.046       .  S
N838        H841   1.046       .  S
N838        H842   1.046       .  S
C843        C844   1.408       .  A
C843        C848   1.405       .  A
C843        H850   1.083       .  S
C844        C845   1.418       .  A
C845        C846   1.410       .  A
C845        N852   1.438       .  S
C846        C847   1.401       .  A
C846        H851   1.084       .  S
C847        C848   1.407       .  A
C848        N849   1.438       .  S
N849        H853   1.046       .  S
N849        H854   1.046       .  S
N852        H855   1.045       .  S
N852        H856   1.046       .  S
C857        C858   1.405       .  A
C857        C862   1.404       .  A
C857        H864   1.084       .  S
C858        C859   1.414       .  A
C859        C860   1.411       .  A
C859        N866   1.437       .  S
C860        C861   1.407       .  A
C860        H865   1.083       .  S
C861        C862   1.413       .  A
C862        N863   1.438       .  S
N863        H867   1.046       .  S
N863        H868   1.046       .  S
N866        H869   1.046       .  S
N866        H870   1.046       .  S
C871        C872   1.404       .  A
C871        C876   1.400       .  A
C871        H878   1.084       .  S
C872        C873   1.423       .  A
C873        C874   1.406       .  A
C873        N880   1.440       .  S
C874        C875   1.401       .  A
C874        H879   1.084       .  S
C875        C876   1.414       .  A
C876        N877   1.434       .  S
N877        H881   1.046       .  S
N877        H882   1.043       .  S
N880        H883   1.041       .  S
N880        H884   1.045       .  S
C885        C886   1.407       .  A
C885        C890   1.403       .  A
C885        H892   1.084       .  S
C886        C887   1.416       .  A
C887        C888   1.411       .  A
C887        N894   1.438       .  S
C888        C889   1.405       .  A
C888        H893   1.084       .  S
C889        C890   1.414       .  A
C890        N891   1.433       .  S
N891        H895   1.044       .  S
N891        H896   1.045       .  S
N894        H897   1.046       .  S
N894        H898   1.046       .  S
C899        C900   1.408       .  A
C899        C904   1.413       .  A
C899        H906   1.083       .  S
C900        C901   1.416       .  A
C901        C902   1.402       .  A
C901        N908   1.439       .  S
C902        C903   1.400       .  A
C902        H907   1.084       .  S
C903        C904   1.412       .  A
C904        N905   1.437       .  S
N905        H909   1.046       .  S
N905        H910   1.046       .  S
N908        H911   1.046       .  S
N908        H912   1.046       .  S
C913        C914   1.402       .  A
C913        C918   1.409       .  A
C913        H920   1.084       .  S
C914        C915   1.410       .  A
C915        C916   1.406       .  A
C915        N922   1.433       .  S
C916        C917   1.405       .  A
C916        H921   1.084       .  S
C917        C918   1.416       .  A
C918        N919   1.438       .  S
N919        H923   1.046       .  S
N919        H924   1.045       .  S
N922        H925   1.046       .  S
N922        H926   1.045       .  S
C927        C928   1.409       .  A
C927        C932   1.399       .  A
C927        H934   1.083       .  S
C928        C929   1.419       .  A
C929        C930   1.409       .  A
C929        N936   1.437       .  S
C930        C931   1.401       .  A
C930        H935   1.084       .  S
C931        C932   1.404       .  A
C932        N933   1.433       .  S
N933        H937   1.046       .  S
N933        H938   1.046       .  S
N936        H939   1.046       .  S
N936        H940   1.046       .  S
C941        C942   1.408       .  A
C941        C946   1.406       .  A
C941        H948   1.084       .  S
C942        C943   1.418       .  A
C943        C944   1.397       .  A
C943        N950   1.433       .  S
C944        C945   1.403       .  A
C944        H949   1.085       .  S
C945        C946   1.414       .  A
C946        N947   1.432       .  S
N947        H951   1.044       .  S
N947        H952   1.046       .  S
N950        H953   1.046       .  S
N950        H954   1.044       .  S
C955        C956   1.411       .  A
C955        C960   1.406       .  A
C955        H962   1.083       .  S
C956        C957   1.421       .  A
C957        C958   1.402       .  A
C957        N964   1.439       .  S
C958        C959   1.398       .  A
C958        H963   1.084       .  S
C959        C960   1.411       .  A
C960        N961   1.432       .  S
N961        H965   1.045       .  S
N961        H966   1.046       .  S
N964        H967   1.046       .  S
N964        H968   1.046       .  S
C969        C970   1.401       .  A
C969        C974   1.409       .  A
C969        H976   1.084       .  S
C970        C971   1.407       .  A
C971        C972   1.407       .  A
C971        N978   1.438       .  S
C972        C973   1.409       .  A
C972        H977   1.084       .  S
C973        C974   1.415       .  A
C974        N975   1.438       .  S
N975        H979   1.045       .  S
N975        H980   1.046       .  S
N978        H981   1.046       .  S
N978        H982   1.046       .  S
C983        C984   1.407       .  A
C983        C988   1.407       .  A
C983        H990   1.084       .  S
C984        C985   1.418       .  A
C985        C986   1.399       .  A
C985        N992   1.433       .  S
C986        C987   1.403       .  A
C986        H991   1.084       .  S
C987        C988   1.416       .  A
C988        N989   1.432       .  S
N989        H993   1.044       .  S
N989        H994   1.045       .  S
N992        H995   1.045       .  S
N992        H996   1.044       .  S
C997        C998   1.407       .  A
C997       C1002   1.403       .  A
C997       H1004   1.084       .  S
C998        C999   1.415       .  A
C999       C1000   1.396       .  A
C999       N1006   1.433       .  S
C1000      C1001   1.404       .  A
C1000      H1005   1.085       .  S
C1001      C1002   1.413       .  A
C1002      N1003   1.432       .  S
N1003      H1007   1.044       .  S
N1003      H1008   1.045       .  S
N1006      H1009   1.045       .  S
N1006      H1010   1.044       .  S
C1011      C1012   1.405       .  A
C1011      C1016   1.401       .  A
C1011      H1018   1.084       .  S
C1012      C1013   1.416       .  A
C1013      C1014   1.408       .  A
C1013      N1020   1.438       .  S
C1014      C1015   1.403       .  A
C1014      H1019   1.084       .  S
C1015      C1016   1.415       .  A
C1016      N1017   1.433       .  S
N1017      H1021   1.045       .  S
N1017      H1022   1.046       .  S
N1020      H1023   1.046       .  S
N1020      H1024   1.046       .  S
C1025      C1026   1.406       .  A
C1025      C1030   1.409       .  A
C1025      H1032   1.084       .  S
C1026      C1027   1.421       .  A
C1027      C1028   1.402       .  A
C1027      N1034   1.433       .  S
C1028      C1029   1.400       .  A
C1028      H1033   1.084       .  S
C1029      C1030   1.412       .  A
C1030      N1031   1.438       .  S
N1031      H1035   1.046       .  S
N1031      H1036   1.045       .  S
N1034      H1037   1.046       .  S
N1034      H1038   1.044       .  S
C1039      C1040   1.409       .  A
C1039      C1044   1.412       .  A
C1039      H1046   1.083       .  S
C1040      C1041   1.423       .  A
C1041      C1042   1.402       .  A
C1041      N1048   1.433       .  S
C1042      C1043   1.403       .  A
C1042      H1047   1.084       .  S
C1043      C1044   1.412       .  A
C1044      N1045   1.438       .  S
N1045      H1049   1.045       .  S
N1045      H1050   1.045       .  S
N1048      H1051   1.045       .  S
N1048      H1052   1.046       .  S
C1053      C1054   1.405       .  A
C1053      C1058   1.405       .  A
C1053      H1060   1.084       .  S
C1054      C1055   1.409       .  A
C1055      C1056   1.401       .  A
C1055      N1062   1.433       .  S
C1056      C1057   1.402       .  A
C1056      H1061   1.084       .  S
C1057      C1058   1.415       .  A
C1058      N1059   1.432       .  S
N1059      H1063   1.044       .  S
N1059      H1064   1.046       .  S
N1062      H1065   1.046       .  S
N1062      H1066   1.046       .  S
C1067      C1068   1.408       .  A
C1067      C1072   1.401       .  A
C1067      H1074   1.083       .  S
C1068      C1069   1.418       .  A
C1069      C1070   1.405       .  A
C1069      N1076   1.433       .  S
C1070      C1071   1.402       .  A
C1070      H1075   1.084       .  S
C1071      C1072   1.412       .  A
C1072      N1073   1.432       .  S
N1073      H1077   1.044       .  S
N1073      H1078   1.045       .  S
N1076      H1079   1.046       .  S
N1076      H1080   1.046       .  S
C1081      C1082   1.408       .  A
C1081      C1086   1.399       .  A
C1081      H1088   1.083       .  S
C1082      C1083   1.419       .  A
C1083      C1084   1.408       .  A
C1083      N1090   1.432       .  S
C1084      C1085   1.400       .  A
C1084      H1089   1.084       .  S
C1085      C1086   1.411       .  A
C1086      N1087   1.433       .  S
N1087      H1091   1.045       .  S
N1087      H1092   1.045       .  S
N1090      H1093   1.046       .  S
N1090      H1094   1.046       .  S
C1095      C1096   1.406       .  A
C1095      C1100   1.408       .  A
C1095      H1102   1.084       .  S
C1096      C1097   1.417       .  A
C1097      C1098   1.401       .  A
C1097      N1104   1.438       .  S
C1098      C1099   1.404       .  A
C1098      H1103   1.084       .  S
C1099      C1100   1.413       .  A
C1100      N1101   1.438       .  S
N1101      H1105   1.046       .  S
N1101      H1106   1.046       .  S
N1104      H1107   1.042       .  S
N1104      H1108   1.045       .  S
C1109      C1110   1.401       .  A
C1109      C1114   1.406       .  A
C1109      H1116   1.084       .  S
C1110      C1111   1.418       .  A
C1111      C1112   1.406       .  A
C1111      N1118   1.439       .  S
C1112      C1113   1.406       .  A
C1112      H1117   1.084       .  S
C1113      C1114   1.414       .  A
C1114      N1115   1.438       .  S
N1115      H1119   1.045       .  S
N1115      H1120   1.046       .  S
N1118      H1121   1.043       .  S
N1118      H1122   1.046       .  S
C1123      C1124   1.408       .  A
C1123      C1128   1.403       .  A
C1123      H1130   1.084       .  S
C1124      C1125   1.414       .  A
C1125      C1126   1.404       .  A
C1125      N1132   1.432       .  S
C1126      C1127   1.401       .  A
C1126      H1131   1.084       .  S
C1127      C1128   1.415       .  A
C1128      N1129   1.439       .  S
N1129      H1133   1.046       .  S
N1129      H1134   1.043       .  S
N1132      H1135   1.045       .  S
N1132      H1136   1.046       .  S
C1137      C1138   1.405       .  A
C1137      C1142   1.402       .  A
C1137      H1144   1.084       .  S
C1138      C1139   1.417       .  A
C1139      C1140   1.407       .  A
C1139      N1146   1.432       .  S
C1140      C1141   1.406       .  A
C1140      H1145   1.084       .  S
C1141      C1142   1.410       .  A
C1142      N1143   1.433       .  S
N1143      H1147   1.046       .  S
N1143      H1148   1.046       .  S
N1146      H1149   1.044       .  S
N1146      H1150   1.046       .  S
C1151      C1152   1.399       .  A
C1151      C1156   1.403       .  A
C1151      H1158   1.084       .  S
C1152      C1153   1.412       .  A
C1153      C1154   1.413       .  A
C1153      N1160   1.437       .  S
C1154      C1155   1.405       .  A
C1154      H1159   1.083       .  S
C1155      C1156   1.416       .  A
C1156      N1157   1.438       .  S
N1157      H1161   1.046       .  S
N1157      H1162   1.046       .  S
N1160      H1163   1.046       .  S
N1160      H1164   1.046       .  S
C1165      C1166   1.406       .  A
C1165      C1170   1.403       .  A
C1165      H1172   1.084       .  S
C1166      C1167   1.419       .  A
C1167      C1168   1.412       .  A
C1167      N1174   1.437       .  S
C1168      C1169   1.402       .  A
C1168      H1173   1.084       .  S
C1169      C1170   1.410       .  A
C1170      N1171   1.433       .  S
N1171      H1175   1.045       .  S
N1171      H1176   1.046       .  S
N1174      H1177   1.046       .  S
N1174      H1178   1.046       .  S
C1179      C1180   1.409       .  A
C1179      C1184   1.399       .  A
C1179      H1186   1.083       .  S
C1180      C1181   1.422       .  A
C1181      C1182   1.410       .  A
C1181      N1188   1.438       .  S
C1182      C1183   1.399       .  A
C1182      H1187   1.084       .  S
C1183      C1184   1.410       .  A
C1184      N1185   1.433       .  S
N1185      H1189   1.045       .  S
N1185      H1190   1.045       .  S
N1188      H1191   1.046       .  S
N1188      H1192   1.045       .  S
C1193      C1194   1.404       .  A
C1193      C1198   1.400       .  A
C1193      H1200   1.084       .  S
C1194      C1195   1.414       .  A
C1195      C1196   1.408       .  A
C1195      N1202   1.438       .  S
C1196      C1197   1.403       .  A
C1196      H1201   1.084       .  S
C1197      C1198   1.411       .  A
C1198      N1199   1.439       .  S
N1199      H1203   1.046       .  S
N1199      H1204   1.046       .  S
N1202      H1205   1.046       .  S
N1202      H1206   1.046       .  S
C1207      C1208   1.401       .  A
C1207      C1212   1.403       .  A
C1207      H1214   1.084       .  S
C1208      C1209   1.407       .  A
C1209      C1210   1.406       .  A
C1209      N1216   1.437       .  S
C1210      C1211   1.407       .  A
C1210      H1215   1.083       .  S
C1211      C1212   1.413       .  A
C1212      N1213   1.433       .  S
N1213      H1217   1.046       .  S
N1213      H1218   1.046       .  S
N1216      H1219   1.046       .  S
N1216      H1220   1.045       .  S
C1221      C1222   1.403       .  A
C1221      C1226   1.403       .  A
C1221      H1228   1.084       .  S
C1222      C1223   1.416       .  A
C1223      C1224   1.408       .  A
C1223      N1230   1.438       .  S
C1224      C1225   1.400       .  A
C1224      H1229   1.084       .  S
C1225      C1226   1.409       .  A
C1226      N1227   1.438       .  S
N1227      H1231   1.046       .  S
N1227      H1232   1.046       .  S
N1230      H1233   1.045       .  S
N1230      H1234   1.046       .  S
C1235      C1236   1.405       .  A
C1235      C1240   1.405       .  A
C1235      H1242   1.084       .  S
C1236      C1237   1.412       .  A
C1237      C1238   1.405       .  A
C1237      N1244   1.438       .  S
C1238      C1239   1.406       .  A
C1238      H1243   1.084       .  S
C1239      C1240   1.418       .  A
C1240      N1241   1.432       .  S
N1241      H1245   1.043       .  S
N1241      H1246   1.046       .  S
N1244      H1247   1.046       .  S
N1244      H1248   1.046       .  S
C1249      C1250   1.409       .  A
C1249      C1254   1.410       .  A
C1249      H1256   1.083       .  S
C1250      C1251   1.421       .  A
C1251      C1252   1.409       .  A
C1251      N1258   1.438       .  S
C1252      C1253   1.403       .  A
C1252      H1257   1.084       .  S
C1253      C1254   1.411       .  A
C1254      N1255   1.438       .  S
N1255      H1259   1.045       .  S
N1255      H1260   1.046       .  S
N1258      H1261   1.045       .  S
N1258      H1262   1.046       .  S
C1263      C1264   1.409       .  A
C1263      C1268   1.406       .  A
C1263      H1270   1.084       .  S
C1264      C1265   1.411       .  A
C1265      C1266   1.398       .  A
C1265      N1272   1.432       .  S
C1266      C1267   1.400       .  A
C1266      H1271   1.085       .  S
C1267      C1268   1.415       .  A
C1268      N1269   1.439       .  S
N1269      H1273   1.046       .  S
N1269      H1274   1.043       .  S
N1272      H1275   1.046       .  S
N1272      H1276   1.046       .  S
C1277      C1278   1.406       .  A
C1277      C1282   1.403       .  A
C1277      H1284   1.084       .  S
C1278      C1279   1.419       .  A
C1279      C1280   1.411       .  A
C1279      N1286   1.438       .  S
C1280      C1281   1.401       .  A
C1280      H1285   1.084       .  S
C1281      C1282   1.417       .  A
C1282      N1283   1.439       .  S
N1283      H1287   1.046       .  S
N1283      H1288   1.043       .  S
N1286      H1289   1.046       .  S
N1286      H1290   1.046       .  S
C1291      C1292   1.404       .  A
C1291      C1296   1.408       .  A
C1291      H1298   1.084       .  S
C1292      C1293   1.412       .  A
C1293      C1294   1.404       .  A
C1293      N1300   1.438       .  S
C1294      C1295   1.405       .  A
C1294      H1299   1.084       .  S
C1295      C1296   1.412       .  A
C1296      N1297   1.432       .  S
N1297      H1301   1.045       .  S
N1297      H1302   1.046       .  S
N1300      H1303   1.045       .  S
N1300      H1304   1.046       .  S
C1305      C1306   1.402       .  A
C1305      C1310   1.401       .  A
C1305      H1312   1.084       .  S
C1306      C1307   1.415       .  A
C1307      C1308   1.410       .  A
C1307      N1314   1.438       .  S
C1308      C1309   1.404       .  A
C1308      H1313   1.083       .  S
C1309      C1310   1.413       .  A
C1310      N1311   1.438       .  S
N1311      H1315   1.046       .  S
N1311      H1316   1.045       .  S
N1314      H1317   1.046       .  S
N1314      H1318   1.046       .  S
C1319      C1320   1.406       .  A
C1319      C1324   1.403       .  A
C1319      H1326   1.084       .  S
C1320      C1321   1.414       .  A
C1321      C1322   1.395       .  A
C1321      N1328   1.433       .  S
C1322      C1323   1.403       .  A
C1322      H1327   1.084       .  S
C1323      C1324   1.415       .  A
C1324      N1325   1.433       .  S
N1325      H1329   1.045       .  S
N1325      H1330   1.044       .  S
N1328      H1331   1.044       .  S
N1328      H1332   1.046       .  S
C1333      C1334   1.402       .  A
C1333      C1338   1.405       .  A
C1333      H1340   1.084       .  S
C1334      C1335   1.411   1_554  A
C1335      C1336   1.396       .  A
C1335      N1342   1.434       .  S
C1336      C1337   1.409   1_556  A
C1336      H1341   1.083       .  S
C1337      C1338   1.416       .  A
C1338      N1339   1.432       .  S
N1339      H1343   1.046       .  S
N1339      H1344   1.046       .  S
N1342      H1345   1.046       .  S
N1342      H1346   1.044       .  S
C1347      C1348   1.405       .  A
C1347      C1352   1.400       .  A
C1347      H1354   1.084       .  S
C1348      C1349   1.411   1_556  A
C1349      C1350   1.404       .  A
C1349      N1356   1.438       .  S
C1350      C1351   1.404   1_554  A
C1350      H1355   1.084       .  S
C1351      C1352   1.414       .  A
C1352      N1353   1.433       .  S
N1353      H1357   1.043       .  S
N1353      H1358   1.046       .  S
N1356      H1359   1.046       .  S
N1356      H1360   1.045       .  S
C1361      C1362   1.411   1_556  A
C1361      C1366   1.406       .  A
C1361      H1368   1.082       .  S
C1362      C1363   1.425       .  A
C1363      C1364   1.399       .  A
C1363      N1370   1.434       .  S
C1364      C1365   1.401       .  A
C1364      H1369   1.084       .  S
C1365      C1366   1.409   1_554  A
C1366      N1367   1.438       .  S
N1367      H1371   1.046       .  S
N1367      H1372   1.045       .  S
N1370      H1373   1.045       .  S
N1370      H1374   1.042       .  S
C1375      C1376   1.402       .  A
C1375      C1380   1.404       .  A
C1375      H1382   1.084       .  S
C1376      C1377   1.414   1_556  A
C1377      C1378   1.399       .  A
C1377      N1384   1.433       .  S
C1378      C1379   1.407   1_554  A
C1378      H1383   1.083       .  S
C1379      C1380   1.416       .  A
C1380      N1381   1.433       .  S
N1381      H1385   1.046       .  S
N1381      H1386   1.046       .  S
N1384      H1387   1.046       .  S
N1384      H1388   1.043       .  S
C1389      C1390   1.399   1_655  A
C1389      C1394   1.393       .  A
C1389      H1396   1.085       .  S
C1390      C1391   1.415       .  A
C1391      C1392   1.401       .  A
C1391      N1398   1.439       .  S
C1392      C1393   1.410       .  A
C1392      H1397   1.082       .  S
C1393      C1394   1.424   1_455  A
C1394      N1395   1.433       .  S
N1395      H1399   1.043       .  S
N1395      H1400   1.045       .  S
N1398      H1401   1.043       .  S
N1398      H1402   1.046       .  S
C1403      C1404   1.406   1_455  A
C1403      C1408   1.399       .  A
C1403      H1410   1.083       .  S
C1404      C1405   1.417       .  A
C1405      C1406   1.406       .  A
C1405      N1412   1.438       .  S
C1406      C1407   1.403   1_655  A
C1406      H1411   1.084       .  S
C1407      C1408   1.413       .  A
C1408      N1409   1.433       .  S
N1409      H1413   1.044       .  S
N1409      H1414   1.046       .  S
N1412      H1415   1.046       .  S
N1412      H1416   1.046       .  S
C1417      C1418   1.403   1_655  A
C1417      C1422   1.403       .  A
C1417      H1424   1.084       .  S
C1418      C1419   1.412       .  A
C1419      C1420   1.406       .  A
C1419      N1426   1.438       .  S
C1420      C1421   1.407       .  A
C1420      H1425   1.083       .  S
C1421      C1422   1.413   1_455  A
C1422      N1423   1.432       .  S
N1423      H1427   1.046       .  S
N1423      H1428   1.046       .  S
N1426      H1429   1.045       .  S
N1426      H1430   1.045       .  S
C1431      C1432   1.403       .  A
C1431      C1436   1.407       .  A
C1431      H1438   1.084       .  S
C1432      C1433   1.411   1_655  A
C1433      C1434   1.397       .  A
C1433      N1440   1.433       .  S
C1434      C1435   1.407   1_455  A
C1434      H1439   1.084       .  S
C1435      C1436   1.416       .  A
C1436      N1437   1.438       .  S
N1437      H1441   1.046       .  S
N1437      H1442   1.046       .  S
N1440      H1443   1.045       .  S
N1440      H1444   1.044       .  S
C1445      C1446   1.402       .  A
C1445      C1450   1.401       .  A
C1445      H1452   1.084       .  S
C1446      C1447   1.416       .  A
C1447      C1448   1.402       .  A
C1447      N1454   1.439       .  S
C1448      C1449   1.411       .  A
C1448      H1453   1.082       .  S
C1449      C1450   1.415       .  A
C1450      N1451   1.432       .  S
N1451      H1455   1.046       .  S
N1451      H1456   1.046       .  S
N1454      H1457   1.043       .  S
N1454      H1458   1.045       .  S
C1459      C1460   1.408       .  A
C1459      C1464   1.399       .  A
C1459      H1466   1.083       .  S
C1460      C1461   1.412       .  A
C1461      C1462   1.402       .  A
C1461      N1468   1.433       .  S
C1462      C1463   1.403       .  A
C1462      H1467   1.084       .  S
C1463      C1464   1.410       .  A
C1464      N1465   1.433       .  S
N1465      H1469   1.043       .  S
N1465      H1470   1.046       .  S
N1468      H1471   1.046       .  S
N1468      H1472   1.045       .  S
C1473      C1474   1.399       .  A
C1473      C1478   1.405       .  A
C1473      H1480   1.084       .  S
C1474      C1475   1.410       .  A
C1475      C1476   1.397       .  A
C1475      N1482   1.434       .  S
C1476      C1477   1.410       .  A
C1476      H1481   1.081       .  S
C1477      C1478   1.422       .  A
C1478      N1479   1.438       .  S
N1479      H1483   1.046       .  S
N1479      H1484   1.045       .  S
N1482      H1485   1.046       .  S
N1482      H1486   1.043       .  S
C1487      C1488   1.399       .  A
C1487      C1492   1.400       .  A
C1487      H1494   1.084       .  S
C1488      C1489   1.412       .  A
C1489      C1490   1.396       .  A
C1489      N1496   1.433       .  S
C1490      C1491   1.404       .  A
C1490      H1495   1.084       .  S
C1491      C1492   1.414       .  A
C1492      N1493   1.433       .  S
N1493      H1497   1.046       .  S
N1493      H1498   1.046       .  S
N1496      H1499   1.046       .  S
N1496      H1500   1.044       .  S
C1501      C1502   1.402       .  A
C1501      C1506   1.399       .  A
C1501      H1508   1.084       .  S
C1502      C1503   1.419       .  A
C1503      C1504   1.402       .  A
C1503      N1510   1.438       .  S
C1504      C1505   1.406       .  A
C1504      H1509   1.084       .  S
C1505      C1506   1.411       .  A
C1506      N1507   1.433       .  S
N1507      H1511   1.046       .  S
N1507      H1512   1.046       .  S
N1510      H1513   1.043       .  S
N1510      H1514   1.045       .  S
C1515      C1516   1.407       .  A
C1515      C1520   1.403       .  A
C1515      H1522   1.083       .  S
C1516      C1517   1.415       .  A
C1517      C1518   1.403       .  A
C1517      N1524   1.432       .  S
C1518      C1519   1.401       .  A
C1518      H1523   1.084       .  S
C1519      C1520   1.406       .  A
C1520      N1521   1.432       .  S
N1521      H1525   1.046       .  S
N1521      H1526   1.045       .  S
N1524      H1527   1.046       .  S
N1524      H1528   1.046       .  S
C1529      C1530   1.402       .  A
C1529      C1534   1.402       .  A
C1529      H1536   1.084       .  S
C1530      C1531   1.409       .  A
C1531      C1532   1.403       .  A
C1531      N1538   1.433       .  S
C1532      C1533   1.407       .  A
C1532      H1537   1.084       .  S
C1533      C1534   1.412       .  A
C1534      N1535   1.432       .  S
N1535      H1539   1.046       .  S
N1535      H1540   1.046       .  S
N1538      H1541   1.046       .  S
N1538      H1542   1.046       .  S
C1543      C1544   1.402       .  A
C1543      C1548   1.403       .  A
C1543      H1550   1.084       .  S
C1544      C1545   1.418       .  A
C1545      C1546   1.399       .  A
C1545      N1552   1.439       .  S
C1546      C1547   1.407       .  A
C1546      H1551   1.082       .  S
C1547      C1548   1.418       .  A
C1548      N1549   1.438       .  S
N1549      H1553   1.046       .  S
N1549      H1554   1.046       .  S
N1552      H1555   1.043       .  S
N1552      H1556   1.045       .  S
C1557      C1558   1.404       .  A
C1557      C1562   1.400       .  A
C1557      H1564   1.084       .  S
C1558      C1559   1.417       .  A
C1559      C1560   1.402       .  A
C1559      N1566   1.438       .  S
C1560      C1561   1.407       .  A
C1560      H1565   1.084       .  S
C1561      C1562   1.410       .  A
C1562      N1563   1.433       .  S
N1563      H1567   1.046       .  S
N1563      H1568   1.046       .  S
N1566      H1569   1.043       .  S
N1566      H1570   1.046       .  S
C1571      C1572   1.402       .  A
C1571      C1576   1.398       .  A
C1571      H1578   1.084       .  S
C1572      C1573   1.413       .  A
C1573      C1574   1.399       .  A
C1573      N1580   1.433       .  S
C1574      C1575   1.405       .  A
C1574      H1579   1.084       .  S
C1575      C1576   1.417       .  A
C1576      N1577   1.433       .  S
N1577      H1581   1.042       .  S
N1577      H1582   1.045       .  S
N1580      H1583   1.046       .  S
N1580      H1584   1.043       .  S
C1585      C1586   1.405       .  A
C1585      C1590   1.403       .  A
C1585      H1592   1.084       .  S
C1586      C1587   1.417       .  A
C1587      C1588   1.398       .  A
C1587      N1594   1.433       .  S
C1588      C1589   1.403       .  A
C1588      H1593   1.084       .  S
C1589      C1590   1.410       .  A
C1590      N1591   1.438       .  S
N1591      H1595   1.046       .  S
N1591      H1596   1.045       .  S
N1594      H1597   1.046       .  S
N1594      H1598   1.042       .  S
C1599      C1600   1.402       .  A
C1599      C1604   1.405       .  A
C1599      H1606   1.084       .  S
C1600      C1601   1.415       .  A
C1601      C1602   1.400       .  A
C1601      N1608   1.439       .  S
C1602      C1603   1.411       .  A
C1602      H1607   1.082       .  S
C1603      C1604   1.420       .  A
C1604      N1605   1.438       .  S
N1605      H1609   1.046       .  S
N1605      H1610   1.046       .  S
N1608      H1611   1.043       .  S
N1608      H1612   1.046       .  S
