geometry optimzed in LAMMPS
_audit_creation_date              2020-11-30 
_audit_creation_method            'lammps2cif' 
_symmetry_space_group_name_H-M    'P1' 
_symmetry_Int_Tables_number       1 
_symmetry_cell_setting            triclinic 
loop_ 
_symmetry_equiv_pos_as_xyz 
  x,y,z 
_cell_length_a                    24.7728535 
_cell_length_b                    25.338664155240224 
_cell_length_c                    24.74634754868655 
_cell_angle_alpha                 91.91835642187104 
_cell_angle_beta                  87.47075267149185 
_cell_angle_gamma                 89.39219295718152 
loop_ 
_atom_site_label 
_atom_site_type_symbol 
_atom_site_fract_x 
_atom_site_fract_y 
_atom_site_fract_z 
_atom_site_charge 
N1          N  0.53435893  0.05200748  0.57753657    -0.36400
N2          N  0.53798828  0.93747587  0.57854643    -0.57000
N3          N  0.53241440  0.93190631  0.46045485    -0.36400
N4          N  0.52220877  0.04644116  0.46053445    -0.57000
C5          C  0.52883775  0.04557118  0.63142972     0.27200
C6          C  0.52311818  0.10329767  0.56907813     0.27200
C7          C  0.52679537  0.88011020  0.47086081     0.27200
C8          C  0.51961059  0.93825475  0.40845494     0.27200
C9          C  0.54040545  0.94743340  0.63237827     0.35800
C10         C  0.54288872  0.88472840  0.57057704     0.35800
C11         C  0.52336565  0.09936566  0.46791954     0.35800
C12         C  0.52090367  0.03690831  0.40661342     0.35800
C13         C  0.51789026  0.09437474  0.65711525    -0.21700
C14         C  0.51382074  0.13054573  0.61794505    -0.21700
C15         C  0.51287043  0.85274674  0.42416378    -0.21700
C16         C  0.50817579  0.88933169  0.38490030    -0.21700
C17         C  0.54806962  0.90104975  0.65895403    -0.22700
C18         C  0.55004272  0.86132496  0.61989782    -0.22700
C19         C  0.52227869  0.12329560  0.41829139    -0.22700
C20         C  0.52026332  0.08379832  0.37959153    -0.22700
C21         C  0.52999422  0.99697631  0.65836337    -0.18100
C22         C  0.52115072  0.12689700  0.51867903    -0.18100
C23         C  0.51833210  0.98664446  0.38115992    -0.18100
C24         C  0.53287679  0.85671491  0.52140555    -0.18100
H25         H  0.51254804  0.10355201  0.69966282     0.14800
H26         H  0.50450751  0.17213544  0.62480901     0.14800
H27         H  0.50587422  0.81081058  0.41906764     0.14800
H28         H  0.49688449  0.88071387  0.34384876     0.14800
H29         H  0.55037025  0.89621535  0.70208812     0.13100
H30         H  0.55371626  0.81973379  0.62760010     0.13100
H31         H  0.52220843  0.16487026  0.41040727     0.13100
H32         H  0.51841414  0.08907299  0.33647747     0.13100
H33         H  0.54691040  0.02397021  0.54852186     0.26400
H34         H  0.54756362  0.96041981  0.48609112     0.26400
N35         N  0.02311590  0.52504016  0.47096025    -0.36400
N36         N  0.99849196  0.41191495  0.44145805    -0.57000
N37         N  0.98322982  0.45700908  0.32253728    -0.36400
N38         N  0.98047475  0.60545831  0.38964369    -0.57000
C39         C  0.03654044  0.49267898  0.51056896     0.27200
C40         C  0.02337771  0.57472256  0.49216670     0.27200
C41         C  0.95712549  0.41051012  0.31913405     0.27200
C42         C  0.95104925  0.49346776  0.30161667     0.27200
C43         C  0.04903757  0.41011396  0.45916214     0.35800
C44         C  0.99848456  0.37896478  0.39772467     0.35800
C45         C  0.02954509  0.61755217  0.40580621     0.35800
C46         C  0.98663661  0.57352378  0.34541313     0.35800
C47         C  0.03664350  0.52123659  0.55924941    -0.21700
C48         C  0.02722392  0.57292609  0.54752156    -0.21700
C49         C  0.91553361  0.41488360  0.28379717    -0.21700
C50         C  0.91046572  0.46804324  0.27435610    -0.21700
C51         C  0.08009478  0.37291854  0.42882734    -0.22700
C52         C  0.04843479  0.35520432  0.38765898    -0.22700
C53         C  0.06817281  0.59743949  0.36794413    -0.22700
C54         C  0.04067368  0.56916782  0.32914188    -0.22700
C55         C  0.06734017  0.44664578  0.49811721    -0.18100
C56         C  0.03770118  0.61870053  0.46101007    -0.18100
C57         C  0.94332050  0.54261477  0.32885407    -0.18100
C58         C  0.95498761  0.37711775  0.36380252    -0.18100
H59         H  0.04810494  0.50805513  0.59817074     0.14800
H60         H  0.03223057  0.60584655  0.57490791     0.14800
H61         H  0.88461853  0.38589490  0.27660780     0.14800
H62         H  0.87519442  0.48632175  0.25835692     0.14800
H63         H  0.12196093  0.36230069  0.43349008     0.13100
H64         H  0.06044911  0.32827646  0.35437166     0.13100
H65         H  0.11140659  0.59590302  0.37245866     0.13100
H66         H  0.05850213  0.54375045  0.29700909     0.13100
H67         H  0.02587876  0.51487102  0.42983779     0.26400
H68         H  0.01228325  0.46617246  0.35052829     0.26400
N69         N  0.44369775  0.52219231  0.96598694    -0.36400
N70         N  0.43885275  0.52500506  0.08495099    -0.57000
N71         N  0.55444687  0.50196066  0.08358026    -0.36400
N72         N  0.55961649  0.50006009  0.96568556    -0.57000
C73         C  0.38958993  0.52045024  0.97553186     0.27200
C74         C  0.45359963  0.51066565  0.91253436     0.27200
C75         C  0.54476962  0.50747346  0.13773651     0.27200
C76         C  0.60831880  0.49515000  0.07454769     0.27200
C77         C  0.38547099  0.53030703  0.07726320     0.35800
C78         C  0.44468339  0.52543134  0.13897347     0.35800
C79         C  0.55444484  0.50541499  0.91222539     0.35800
C80         C  0.61313151  0.49650040  0.97322208     0.35800
C81         C  0.36502152  0.51085337  0.92665840    -0.21700
C82         C  0.40534142  0.50464757  0.88715764    -0.21700
C83         C  0.59289395  0.50278029  0.16366991    -0.21700
C84         C  0.63284018  0.49503708  0.12397778    -0.21700
C85         C  0.35708099  0.53554967  0.12661932    -0.22700
C86         C  0.39441320  0.53237262  0.16566300    -0.22700
C87         C  0.60521286  0.50567885  0.88608645    -0.22700
C88         C  0.64224507  0.49949763  0.92452329    -0.22700
C89         C  0.36122581  0.52506330  0.02686313    -0.18100
C90         C  0.50492684  0.50488260  0.88580424    -0.18100
C91         C  0.63671955  0.49116319  0.02331673    -0.18100
C92         C  0.49399795  0.51700008  0.16489515    -0.18100
H93         H  0.32239975  0.50749534  0.91982263     0.14800
H94         H  0.39971815  0.49561971  0.84472650     0.14800
H95         H  0.59884759  0.50553799  0.20674102     0.14800
H96         H  0.67526604  0.49065027  0.13107437     0.14800
H97         H  0.31377567  0.53938164  0.13380641     0.13100
H98         H  0.38496969  0.53347699  0.20873465     0.13100
H99         H  0.61517252  0.50967041  0.84376846     0.13100
H100        H  0.68566485  0.49791369  0.91736280     0.13100
H101        H  0.47195461  0.53325569  0.99366340     0.26400
H102        H  0.52580590  0.50088282  0.05466312     0.26400
N103        N  0.96199470  0.40612909  0.85519358    -0.36400
N104        N  0.97225774  0.49145569  0.93436381    -0.57000
N105        N  0.97371214  0.56874206  0.85196338    -0.36400
N106        N  0.96010514  0.48414397  0.77258705    -0.57000
C107        C  0.98069645  0.37979511  0.89762639     0.27200
C108        C  0.97337980  0.37602867  0.80980748     0.27200
C109        C  0.99245570  0.59694209  0.89459104     0.27200
C110        C  0.99126692  0.59210691  0.80615258     0.27200
C111        C  0.96290539  0.45060814  0.96691261     0.35800
C112        C  0.96325572  0.53578697  0.96522959     0.35800
C113        C  0.94850719  0.44107039  0.74214082     0.35800
C114        C  0.95747181  0.52546541  0.73999410     0.35800
C115        C  0.00233817  0.33159820  0.87939690    -0.21700
C116        C  0.99763902  0.32942725  0.82411720    -0.21700
C117        C  0.02128012  0.63965707  0.87595974    -0.21700
C118        C  0.02022152  0.63682598  0.82019609    -0.21700
C119        C  0.94662972  0.46881713  0.01851776    -0.22700
C120        C  0.94645401  0.52291502  0.01735107    -0.22700
C121        C  0.93602780  0.45533704  0.69052020    -0.22700
C122        C  0.94213310  0.50865920  0.68898342    -0.22700
C123        C  0.97738348  0.39807638  0.95237380    -0.18100
C124        C  0.96287051  0.38973801  0.75590282    -0.18100
C125        C  0.97986089  0.57491620  0.75245464    -0.18100
C126        C  0.98072432  0.58618206  0.94969896    -0.18100
H127        H  0.02063766  0.30171969  0.90319228     0.14800
H128        H  0.01267530  0.29836475  0.79698081     0.14800
H129        H  0.04038866  0.67000606  0.90000334     0.14800
H130        H  0.03854162  0.66483278  0.79330087     0.14800
H131        H  0.93836461  0.44562219  0.05382218     0.13100
H132        H  0.93875501  0.54964431  0.05186838     0.13100
H133        H  0.92843052  0.42989181  0.65581565     0.13100
H134        H  0.93985666  0.53100573  0.65272943     0.13100
H135        H  0.93944781  0.44108501  0.85747521     0.26400
H136        H  0.94610707  0.53814132  0.85439646     0.26400
N137        N  0.53718742  0.94001546  0.03844081    -0.36400
N138        N  0.42060694  0.94093698  0.05257685    -0.57000
N139        N  0.42437035  0.05547253  0.06047966    -0.36400
N140        N  0.53965722  0.05457561  0.04921025    -0.57000
C141        C  0.52789026  0.88817021  0.04519261     0.27200
C142        C  0.59022030  0.94782012  0.04558181     0.27200
C143        C  0.37226735  0.04663863  0.07495610     0.27200
C144        C  0.43381788  0.10719415  0.07069514     0.27200
C145        C  0.42857903  0.89014740  0.03581235     0.35800
C146        C  0.36779699  0.95184092  0.04661848     0.35800
C147        C  0.59177650  0.04467875  0.03367454     0.35800
C148        C  0.53066276  0.10621739  0.04096524     0.35800
C149        C  0.57548717  0.86246454  0.05641275    -0.21700
C150        C  0.61494099  0.90007944  0.05653129    -0.21700
C151        C  0.34872676  0.09336240  0.09627987    -0.21700
C152        C  0.38764905  0.13162363  0.09343469    -0.21700
C153        C  0.37996772  0.86799045  0.02150581    -0.22700
C154        C  0.34146333  0.90737571  0.02798166    -0.22700
C155        C  0.61673165  0.09014054  0.01699877    -0.22700
C156        C  0.57803687  0.12901984  0.02139795    -0.22700
C157        C  0.47861980  0.86291644  0.03636920    -0.18100
C158        C  0.61774171  0.99554278  0.03663170    -0.18100
C159        C  0.48108804  0.13333739  0.05368041    -0.18100
C160        C  0.34340401  0.00167331  0.05758532    -0.18100
H161        H  0.58149801  0.82073302  0.06240920     0.14800
H162        H  0.65725605  0.89258949  0.06262053     0.14800
H163        H  0.30706613  0.10016322  0.10969672     0.14800
H164        H  0.38185301  0.17307193  0.10440773     0.14800
H165        H  0.37290889  0.82786080  0.00748017     0.13100
H166        H  0.29905619  0.90379640  0.01986184     0.13100
H167        H  0.65835808  0.09481504  0.00296194     0.13100
H168        H  0.58483636  0.16916001  0.01094315     0.13100
H169        H  0.51075105  0.96669878  0.02231035     0.26400
H170        H  0.44845682  0.03048132  0.03537813     0.26400
Zn171      Zn  0.71119036  0.70944237  0.81096744     1.49700
Zn172      Zn  0.81235766  0.68711220  0.72188213     1.49400
Zn173      Zn  0.72371084  0.77474638  0.70005472     1.49100
Zn174      Zn  0.80350779  0.80135834  0.79061767     1.49500
O175        O  0.76300001  0.74215614  0.75664947    -1.83900
O176        O  0.71802676  0.62836828  0.79726690    -0.74500
O177        O  0.80216531  0.68398811  0.63817097    -0.74400
O178        O  0.64674085  0.75468204  0.71014745    -0.73900
O179        O  0.79144950  0.60948341  0.74453746    -0.74600
O180        O  0.62935692  0.72458151  0.79237890    -0.74200
O181        O  0.74797763  0.75121574  0.62205101    -0.74700
O182        O  0.77743545  0.87874120  0.77373998    -0.74100
O183        O  0.89142985  0.71263565  0.73497128    -0.74900
O184        O  0.72442822  0.85359970  0.70848762    -0.74300
O185        O  0.88483864  0.79380908  0.77309746    -0.74700
O186        O  0.79126696  0.79409199  0.86912210    -0.74700
O187        O  0.72951973  0.73435385  0.89145921    -0.74400
C188        C  0.74865415  0.59455720  0.77068113     0.77300
C189        C  0.77716408  0.71189094  0.60476709     0.77800
C190        C  0.61342676  0.73766806  0.74595975     0.76800
C191        C  0.74459132  0.89025544  0.73749545     0.77200
C192        C  0.91331282  0.75578124  0.75158396     0.78300
C193        C  0.76334353  0.77012970  0.90484842     0.77400
Zn194      Zn  0.31838218  0.78757882  0.82204512     1.49700
Zn195      Zn  0.28890734  0.68841906  0.73455038     1.49400
Zn196      Zn  0.20421533  0.72242414  0.83333812     1.49100
Zn197      Zn  0.23635565  0.79960475  0.73717281     1.49500
O198        O  0.26278831  0.74777458  0.78438994    -1.83900
O199        O  0.39475947  0.76348041  0.78882528    -0.74500
O200        O  0.26377487  0.61148256  0.76151405    -0.74400
O201        O  0.22355817  0.73915357  0.91388678    -0.73900
O202        O  0.37105375  0.69563110  0.73463170    -0.74600
O203        O  0.30981741  0.76169580  0.89814161    -0.74200
O204        O  0.20740590  0.64117024  0.82811183    -0.74700
O205        O  0.15749387  0.78535009  0.73232649    -0.74100
O206        O  0.26331351  0.70556635  0.65608026    -0.74900
O207        O  0.12755164  0.74605507  0.80706779    -0.74300
O208        O  0.27468597  0.79170029  0.66428523    -0.74700
O209        O  0.24108662  0.87516478  0.76326656    -0.74700
O210        O  0.30221247  0.87093655  0.82551954    -0.74400
C211        C  0.40726001  0.72531372  0.75488349     0.77300
C212        C  0.23061718  0.60233898  0.80150650     0.77800
C213        C  0.27169258  0.74575356  0.92996184     0.76800
C214        C  0.11881530  0.76698614  0.76164653     0.77200
C215        C  0.26365319  0.75143727  0.63532835     0.78300
C216        C  0.26804716  0.89773770  0.79961754     0.77400
Zn217      Zn  0.79284062  0.28889326  0.73573022     1.49700
Zn218      Zn  0.69877349  0.20555061  0.71349218     1.49400
Zn219      Zn  0.77514202  0.18736500  0.81782828     1.49100
Zn220      Zn  0.68804336  0.28793927  0.80971743     1.49500
O221        O  0.73980466  0.24118928  0.77008050    -1.83900
O222        O  0.77902784  0.28939345  0.65495016    -0.74500
O223        O  0.71205014  0.12838910  0.72023182    -0.74400
O224        O  0.86030706  0.18879613  0.80122491    -0.73900
O225        O  0.71709678  0.23018765  0.63470432    -0.74600
O226        O  0.86730047  0.25530968  0.74432380    -0.74200
O227        O  0.75205173  0.10818256  0.79553595    -0.74700
O228        O  0.69589050  0.27751835  0.88808081    -0.74100
O229        O  0.61766902  0.20858331  0.73273840    -0.74900
O230        O  0.74824199  0.20665827  0.89986373    -0.74300
O231        O  0.60826884  0.26727115  0.80096858    -0.74700
O232        O  0.70123285  0.36417834  0.78907312    -0.74700
O233        O  0.78587861  0.36983432  0.75667384    -0.74400
C234        C  0.75046930  0.26577068  0.62011371     0.77300
C235        C  0.72848123  0.09386605  0.75233712     0.77800
C236        C  0.88859197  0.21673801  0.76827211     0.76800
C237        C  0.71590957  0.24376605  0.91878240     0.77200
C238        C  0.58829433  0.23228009  0.76981607     0.78300
C239        C  0.74033380  0.39172306  0.77012450     0.77400
Zn240      Zn  0.18909823  0.29444757  0.75046757     1.49700
Zn241      Zn  0.19131740  0.20556393  0.83138842     1.49400
Zn242      Zn  0.27671951  0.19587330  0.73602202     1.49100
Zn243      Zn  0.28335963  0.29032894  0.83525092     1.49500
O244        O  0.23742982  0.24793548  0.78651610    -1.83900
O245        O  0.11205011  0.26340021  0.75284819    -0.74500
O246        O  0.22433178  0.13346603  0.83727184    -0.74400
O247        O  0.26590189  0.21761316  0.65455765    -0.73900
O248        O  0.11661836  0.19334968  0.80367843    -0.74600
O249        O  0.21367967  0.28889897  0.67269710    -0.74200
O250        O  0.26077039  0.11495692  0.75523312    -0.74700
O251        O  0.36406675  0.26898731  0.81738701    -0.74100
O252        O  0.18241985  0.23860298  0.90472180    -0.74900
O253        O  0.35515625  0.20442095  0.75436885    -0.74300
O254        O  0.26522123  0.26868304  0.91536814    -0.74700
O255        O  0.26601332  0.37109812  0.82894930    -0.74700
O256        O  0.19494368  0.37411283  0.77693447    -0.74400
C257        C  0.09076682  0.22185787  0.77233925     0.77300
C258        C  0.24313210  0.09969359  0.80176650     0.77800
C259        C  0.24098324  0.25889008  0.63906256     0.76800
C260        C  0.38417676  0.23167263  0.78614557     0.77200
C261        C  0.22109723  0.24962755  0.93490125     0.78300
C262        C  0.22893847  0.39765404  0.80676809     0.77400
Zn263      Zn  0.71010480  0.81170794  0.22688712     1.49700
Zn264      Zn  0.68695740  0.70266774  0.29528449     1.49400
Zn265      Zn  0.78024208  0.71224075  0.20302821     1.49100
Zn266      Zn  0.79486555  0.78272164  0.31450884     1.49500
O267        O  0.74260824  0.75212061  0.26199305    -1.83900
O268        O  0.63150272  0.80260415  0.23655709    -0.74500
O269        O  0.70137000  0.61996425  0.27186045    -0.74400
O270        O  0.76794856  0.73256824  0.12465399    -0.73900
O271        O  0.60716821  0.72997036  0.27928147    -0.74600
O272        O  0.72942828  0.80977217  0.14655745    -0.74200
O273        O  0.76553458  0.63551590  0.20966046    -0.74700
O274        O  0.87633335  0.76316780  0.29071170    -0.74100
O275        O  0.69947122  0.70741237  0.37672622    -0.74900
O276        O  0.85837903  0.72420810  0.21197769    -0.74300
O277        O  0.77204178  0.75703521  0.39230619    -0.74700
O278        O  0.79444840  0.86418121  0.31022943    -0.74700
O279        O  0.73245318  0.88646838  0.25283858    -0.74400
C280        C  0.59487300  0.77236436  0.25515340     0.77300
C281        C  0.73672941  0.60276285  0.23581767     0.77800
C282        C  0.75070147  0.77735944  0.11111978     0.76800
C283        C  0.89234793  0.74225142  0.24484515     0.77200
C284        C  0.73373156  0.72691842  0.40904704     0.78300
C285        C  0.77010092  0.89933670  0.28394831     0.77400
Zn286      Zn  0.21424630  0.69227323  0.24189385     1.49700
Zn287      Zn  0.27314508  0.80289768  0.23286073     1.49400
Zn288      Zn  0.18475461  0.79281247  0.32414931     1.49100
Zn289      Zn  0.29733695  0.72327404  0.33307918     1.49500
O290        O  0.24259393  0.75236408  0.28426545    -1.83900
O291        O  0.24367145  0.69563829  0.16331550    -0.74500
O292        O  0.25690390  0.88261631  0.25121770    -0.74400
O293        O  0.10793679  0.77288104  0.29394617    -0.73900
O294        O  0.26389226  0.78027948  0.15300581    -0.74600
O295        O  0.13465286  0.70433840  0.23996001    -0.74200
O296        O  0.20085860  0.87349996  0.32239753    -0.74700
O297        O  0.27798807  0.74645531  0.41354810    -0.74100
O298        O  0.35191600  0.79739979  0.24351014    -0.74900
O299        O  0.19473029  0.77883134  0.40382123    -0.74300
O300        O  0.37607648  0.74580806  0.30944991    -0.74700
O301        O  0.29416394  0.64242857  0.32691873    -0.74700
O302        O  0.23235234  0.61704751  0.26946959    -0.74400
C303        C  0.25870432  0.73338690  0.13337465     0.77300
C304        C  0.23074149  0.90273564  0.29261924     0.77800
C305        C  0.09766671  0.73609118  0.25891327     0.76800
C306        C  0.23341431  0.76595925  0.43391003     0.77200
C307        C  0.38832041  0.77700673  0.27135022     0.78300
C308        C  0.26848711  0.60566646  0.30259756     0.77400
Zn309      Zn  0.69579665  0.19110203  0.23848886     1.49700
Zn310      Zn  0.78047568  0.28084576  0.21013412     1.49400
Zn311      Zn  0.70008366  0.30575212  0.30387258     1.49100
Zn312      Zn  0.79470912  0.21536967  0.31886836     1.49500
O313        O  0.74289319  0.24724696  0.26862202    -1.83900
O314        O  0.69277351  0.20176863  0.15736585    -0.74500
O315        O  0.77244527  0.36034742  0.21490091    -0.74400
O316        O  0.62223350  0.29121705  0.29156238    -0.75500
O317        O  0.75794575  0.25766843  0.13483368    -0.74600
O318        O  0.61762784  0.20506826  0.26922329    -0.74200
O319        O  0.71759939  0.38565655  0.28339256    -0.74700
O320        O  0.76796816  0.23381331  0.39979703    -0.74100
O321        O  0.85665823  0.26684478  0.21861965    -0.74900
O322        O  0.70682618  0.29602717  0.38362192    -0.74300
O323        O  0.87669264  0.23585336  0.29807536    -0.74700
O324        O  0.79296885  0.13551958  0.30409546    -0.74700
O325        O  0.72529927  0.11404536  0.25151808    -0.74400
C326        C  0.71871603  0.22852405  0.12209501     0.77300
C327        C  0.74864688  0.39745499  0.24309343     0.77800
C328        C  0.59528462  0.24898920  0.28544944     0.76800
C329        C  0.73195716  0.26807909  0.41669064     0.77200
C330        C  0.89154223  0.25282830  0.25149522     0.78300
C331        C  0.76654807  0.10077915  0.27774995     0.77400
N332        N  0.08384000  0.03819281  0.49285578    -0.36400
N333        N  0.96780313  0.03938033  0.50683022    -0.57000
N334        N  0.97463215  0.03956446  0.62469507    -0.36400
N335        N  0.09211193  0.03361328  0.60989227    -0.57000
C336        C  0.06971464  0.02726224  0.44130703     0.27200
C337        C  0.13588930  0.02245846  0.49614128     0.27200
C338        C  0.92163466  0.02892823  0.61993344     0.27200
C339        C  0.98719341  0.02796927  0.67563307     0.27200
C340        C  0.97166695  0.04679654  0.45309149     0.35800
C341        C  0.91487995  0.04424073  0.52133906     0.35800
C342        C  0.14554181  0.03404478  0.59596341     0.35800
C343        C  0.08787988  0.03567508  0.66455404     0.35800
C344        C  0.11322536  0.00598581  0.41116317    -0.21700
C345        C  0.15452218  0.00266885  0.44560068    -0.21700
C346        C  0.89965562  0.01301038  0.66920583    -0.21700
C347        C  0.94105665  0.01238033  0.70435301    -0.21700
C348        C  0.92083120  0.05680128  0.43385902    -0.22700
C349        C  0.88500372  0.05525372  0.47707069    -0.22700
C350        C  0.17548728  0.03653519  0.64186628    -0.22700
C351        C  0.13906413  0.03783976  0.68526974    -0.22700
C352        C  0.01875452  0.03636348  0.42020619    -0.18100
C353        C  0.16766467  0.02668026  0.54269128    -0.18100
C354        C  0.03959812  0.02772216  0.69611945    -0.18100
C355        C  0.89208174  0.03405279  0.57275471    -0.18100
H356        H  0.11496473  0.99321919  0.36892949     0.14800
H357        H  0.19308424  0.98570931  0.43404796     0.14800
H358        H  0.85826104  0.00205751  0.67865366     0.14800
H359        H  0.93782603  0.00029939  0.74589985     0.14800
H360        H  0.90955265  0.06248979  0.39286860     0.13100
H361        H  0.84162206  0.06004943  0.47564392     0.13100
H362        H  0.21900260  0.03508427  0.64401463     0.13100
H363        H  0.14925866  0.03798497  0.72734359     0.13100
H364        H  0.06098862  0.05937981  0.52255441     0.26400
H365        H  0.00008272  0.05614795  0.59569732     0.26400
C366        C  0.25159370  0.05029333  0.31514962     0.80400
N367        N  0.27984200  0.04825326  0.36073157    -0.77900
C368        C  0.28921659  0.00230442  0.38538879     0.82900
N369        N  0.27173415  0.95699836  0.36156574    -0.77800
C370        C  0.24523132  0.95650621  0.31462344     0.83000
N371        N  0.23478970  0.00382240  0.29071562    -0.79500
Zn372      Zn  0.18388238  0.21427517  0.32626830     1.49700
Zn373      Zn  0.28286086  0.29089587  0.33239135     1.49400
Zn374      Zn  0.29185504  0.20183794  0.24206089     1.49100
Zn375      Zn  0.21287706  0.30745113  0.23442341     1.49500
O376        O  0.24115438  0.25248692  0.28304282    -1.83900
O377        O  0.18650925  0.23664505  0.41057106    -0.74500
O378        O  0.35722873  0.27049377  0.32111133    -0.74400
O379        O  0.27610787  0.12567950  0.26503764    -0.73900
O380        O  0.26564528  0.27672618  0.40881316    -0.74600
O381        O  0.20252102  0.13275800  0.32028370    -0.74200
O382        O  0.37522501  0.21372666  0.25321089    -0.74700
O383        O  0.23160005  0.28543332  0.15427163    -0.74100
O384        O  0.28152835  0.36869907  0.32351252    -0.74900
O385        O  0.27255089  0.20754533  0.16459752    -0.74300
O386        O  0.23437896  0.38771539  0.25286489    -0.74700
O387        O  0.13208316  0.29780640  0.23722678    -0.74700
O388        O  0.10863690  0.23239878  0.29201247    -0.74400
C389        C  0.22519569  0.25913591  0.43523674     0.77300
C390        C  0.39090641  0.24279303  0.29246148     0.77800
C391        C  0.24053209  0.10466085  0.29625188     0.76800
C392        C  0.24952345  0.24077875  0.13516417     0.77200
C393        C  0.26387545  0.40255450  0.29170653     0.78300
C394        C  0.09665764  0.26659795  0.25687168     0.77400
C395        C  0.04305496  0.26832637  0.23139666     0.80400
N396        N  0.99476701  0.25547160  0.25740568    -0.77900
C397        C  0.94818678  0.25838346  0.22943310     0.82900
N398        N  0.95132322  0.27222847  0.17694457    -0.77800
C399        C  0.99761643  0.28476445  0.15064514     0.83000
N400        N  0.04343327  0.28390359  0.17879404    -0.79500
C401        C  0.23496051  0.22072692  0.08120735     0.80400
N402        N  0.21904594  0.16972006  0.07890182    -0.77900
C403        C  0.20179814  0.14668562  0.03297914     0.82900
N404        N  0.19844499  0.17649235  0.98909808    -0.77800
C405        C  0.21662900  0.22689056  0.98891488     0.83000
N406        N  0.23530473  0.24981545  0.03540905    -0.79500
C407        C  0.44572191  0.24342550  0.31377456     0.80400
N408        N  0.49392224  0.23874338  0.28437889    -0.77900
C409        C  0.54043264  0.25112105  0.31029020     0.82900
N410        N  0.53772787  0.26882769  0.36270083    -0.77800
C411        C  0.49075130  0.27042551  0.39232599     0.83000
N412        N  0.44580009  0.25703044  0.36717476    -0.79500
C413        C  0.79151648  0.04658916  0.27293421     0.80400
N414        N  0.76425574  0.99968053  0.27793603    -0.77900
C415        C  0.79347188  0.95353047  0.28333454     0.82900
N416        N  0.84826729  0.95544246  0.28311943    -0.77800
C417        C  0.87535910  0.00065574  0.27442692     0.83000
N418        N  0.84630362  0.04556637  0.26942852    -0.79500
C419        C  0.69355388  0.23551287  0.07004103     0.80400
N420        N  0.64205877  0.25357822  0.07467271    -0.77900
C421        C  0.61494667  0.26890199  0.03178424     0.82900
N422        N  0.64084063  0.26520492  0.98230335    -0.77800
C423        C  0.69281500  0.24654856  0.97554709     0.83000
N424        N  0.72000705  0.23199158  0.02002937    -0.79500
C425        C  0.74666890  0.54594298  0.21721193     0.80400
N426        N  0.77108072  0.54190609  0.16715602    -0.77900
C427        C  0.78852758  0.49584242  0.14386162     0.82900
N428        N  0.78510741  0.45247878  0.17385587    -0.77800
C429        C  0.75810310  0.45249374  0.22291946     0.83000
N430        N  0.73809393  0.50018018  0.24571728    -0.79500
C431        C  0.72404591  0.28546157  0.47460000     0.80400
N432        N  0.72441753  0.33852586  0.48106068    -0.77900
C433        C  0.76665263  0.35686215  0.50785844     0.82900
N434        N  0.77501910  0.33379516  0.55567407    -0.77800
C435        C  0.75511315  0.28432399  0.56324952     0.83000
N436        N  0.73729448  0.25652243  0.51852169    -0.79500
C437        C  0.28699097  0.55012703  0.31113387     0.80400
N438        N  0.33715315  0.54628914  0.33075569    -0.77900
C439        C  0.36547988  0.50037884  0.32830567     0.82900
N440        N  0.33910619  0.45596166  0.31464365    -0.77800
C441        C  0.28738214  0.45653124  0.29881761     0.83000
N442        N  0.26129244  0.50456949  0.29414265    -0.79500
C443        C  0.04513210  0.73102194  0.23197256     0.80400
N444        N  0.99488388  0.74426619  0.25516921    -0.77900
C445        C  0.94996294  0.73601459  0.22511658     0.82900
N446        N  0.95647556  0.71647913  0.17344902    -0.77800
C447        C  0.00514943  0.70240874  0.15101576     0.83000
N448        N  0.04904330  0.70979127  0.18054487    -0.79500
C449        C  0.28182064  0.72011126  0.07843222     0.80400
N450        N  0.25966518  0.73621821  0.03161150    -0.77900
C451        C  0.28847686  0.72782018  0.98334232     0.82900
N452        N  0.33889584  0.70654423  0.98341232    -0.77800
C453        C  0.36356191  0.69724216  0.02985551     0.83000
N454        N  0.33290649  0.70007747  0.07649975    -0.79500
C455        C  0.44361560  0.79631122  0.25874937     0.80400
N456        N  0.44465015  0.84439820  0.23632960    -0.77900
C457        C  0.49095341  0.86777159  0.22077009     0.82900
N458        N  0.53680696  0.83879854  0.22182320    -0.77800
C459        C  0.53882832  0.79172237  0.24660572     0.83000
N460        N  0.49150288  0.76987745  0.26636989    -0.79500
C461        C  0.22366961  0.77678292  0.49325762     0.80400
N462        N  0.17601636  0.80136991  0.50753586    -0.77900
C463        C  0.15070065  0.78835206  0.55432145     0.82900
N464        N  0.18249896  0.78089424  0.59638962    -0.77800
C465        C  0.23381281  0.76234583  0.58646215     0.83000
N466        N  0.25418941  0.75704454  0.53359667    -0.79500
C467        C  0.76810801  0.79315264  0.96053878     0.80400
N468        N  0.75747234  0.76843110  0.00844483    -0.77900
C469        C  0.76175028  0.79736820  0.05625091     0.82900
N470        N  0.77436900  0.84928938  0.05498306    -0.77800
C471        C  0.78244649  0.87422807  0.00802282     0.83000
N472        N  0.78160653  0.84490160  0.96179233    -0.79500
C473        C  0.22037146  0.27983525  0.49210253     0.80400
N474        N  0.22178924  0.33309638  0.49525732    -0.77900
C475        C  0.23887243  0.36009698  0.53909145     0.82900
N476        N  0.25192132  0.33285218  0.58256502    -0.77800
C477        C  0.24688717  0.27948003  0.58347071     0.83000
N478        N  0.23293648  0.25209401  0.53700484    -0.79500
C479        C  0.04014727  0.20227280  0.74938829     0.80400
N480        N  0.99010742  0.20541093  0.77660230    -0.77900
C481        C  0.94417070  0.19984321  0.74744763     0.82900
N482        N  0.95026417  0.19555542  0.69253494    -0.77800
C483        C  0.99796594  0.20928410  0.66812323     0.83000
N484        N  0.04246363  0.19680650  0.69463909    -0.79500
C485        C  0.23261579  0.04333982  0.81590935     0.80400
N486        N  0.18618684  0.03762783  0.84591767    -0.77900
C487        C  0.16446673  0.98991320  0.85380076     0.82900
N488        N  0.19753142  0.94721455  0.84651671    -0.77800
C489        C  0.24679171  0.95036708  0.82032586     0.83000
N490        N  0.26292497  0.99867749  0.80053607    -0.79500
C491        C  0.43897397  0.21023089  0.79380703     0.80400
N492        N  0.48617687  0.23665151  0.78270276    -0.77900
C493        C  0.53449960  0.20957893  0.78357081     0.82900
N494        N  0.53454021  0.15767070  0.79558010    -0.77800
C495        C  0.48820847  0.13141907  0.80682866     0.83000
N496        N  0.44091299  0.15833887  0.80579178    -0.79500
C497        C  0.22018569  0.54812176  0.82434476     0.80400
N498        N  0.20432934  0.54960556  0.87756945    -0.77900
C499        C  0.19896346  0.50574807  0.90690562     0.82900
N500        N  0.20371433  0.45831274  0.88038279    -0.77800
C501        C  0.21856345  0.45367668  0.82702688     0.83000
N502        N  0.22873415  0.49913315  0.79835259    -0.79500
C503        C  0.71511891  0.03799928  0.73552307     0.80400
N504        N  0.68419909  0.03507808  0.69149254    -0.77900
C505        C  0.69286448  0.99492283  0.65507856     0.82900
N506        N  0.70392619  0.94792098  0.67597371    -0.77800
C507        C  0.72844274  0.94520841  0.72385610     0.83000
N508        N  0.73832849  0.99178027  0.75280969    -0.79500
C509        C  0.06537682  0.76666226  0.73633664     0.80400
N510        N  0.06797620  0.76572595  0.68117450    -0.77900
C511        C  0.02379135  0.74999496  0.65541562     0.82900
N512        N  0.97692406  0.76933055  0.67799139    -0.77800
C513        C  0.96983459  0.76631022  0.73242849     0.83000
N514        N  0.01520670  0.76320257  0.76307640    -0.79500
C515        C  0.46314540  0.71740834  0.73093062     0.80400
N516        N  0.51018713  0.73033182  0.75602986    -0.77900
C517        C  0.55850082  0.72648444  0.72620354     0.82900
N518        N  0.55811576  0.71326909  0.67266334    -0.77800
C519        C  0.51227457  0.70186970  0.64757017     0.83000
N520        N  0.46563348  0.70145696  0.67793559    -0.79500
C521        C  0.72563607  0.54025429  0.76136282     0.80400
N522        N  0.67289946  0.53976582  0.74810106    -0.77900
C523        C  0.64729840  0.49448743  0.73444980     0.82900
N524        N  0.67583942  0.44903015  0.73394886    -0.77800
C525        C  0.72567930  0.44623337  0.75398555     0.83000
N526        N  0.75244287  0.49251566  0.76640687    -0.79500
C527        C  0.73541326  0.70245031  0.46293834     0.80400
N528        N  0.73702736  0.64908557  0.45983010    -0.77900
C529        C  0.77895510  0.62443832  0.48205002     0.82900
N530        N  0.79758804  0.64686686  0.52861420    -0.77800
C531        C  0.77902587  0.69618935  0.54548270     0.83000
N532        N  0.75482408  0.72689199  0.50828157    -0.79500
C533        C  0.99987124  0.97288847  0.34631355    -0.05600
C534        C  0.01095995  0.02528472  0.36174895     0.00400
C535        C  0.99584634  0.06620440  0.32798602    -0.08200
C536        C  0.95600509  0.05552078  0.29072978    -0.05600
C537        C  0.93388723  0.00464975  0.28576207     0.00300
C538        C  0.96354317  0.96178829  0.30566614    -0.08100
C539        C  0.95526570  0.90488230  0.28766410     0.62300
H540        H  0.01512628  0.94096200  0.36968064     0.12900
H541        H  0.93767462  0.08838643  0.27107679     0.13000
C542        C  0.01347593  0.12259923  0.33697578     0.62500
F543        F  0.00345125  0.87678116  0.28872393    -0.22700
F544        F  0.93827074  0.90196071  0.23511234    -0.20000
F545        F  0.91757620  0.88163797  0.32185524    -0.19700
F546        F  0.02709126  0.14402170  0.28761920    -0.19700
F547        F  0.05811210  0.12564416  0.36859031    -0.20100
F548        F  0.97152824  0.15190066  0.36199809    -0.22700
C549        C  0.24700989  0.96893703  0.52035244    -0.05600
C550        C  0.22724696  0.02009294  0.53331444     0.00400
C551        C  0.25807122  0.06325942  0.51537300    -0.08200
C552        C  0.29482474  0.05463407  0.47092608    -0.05600
C553        C  0.29840814  0.00447918  0.44487812     0.00300
C554        C  0.28484317  0.96072457  0.47675155    -0.08100
C555        C  0.30191945  0.90505415  0.46075553     0.62300
H556        H  0.22684973  0.93530505  0.53775810     0.12900
H557        H  0.31214341  0.08816917  0.45072712     0.13000
C558        C  0.24898843  0.11806442  0.54030081     0.62500
F559        F  0.31880597  0.88008128  0.50590417    -0.22700
F560        F  0.34410179  0.90394577  0.42208569    -0.20000
F561        F  0.25845751  0.87835712  0.44066082    -0.19700
F562        F  0.19752761  0.13607738  0.53077018    -0.19700
F563        F  0.28610245  0.15326472  0.51934424    -0.20100
F564        F  0.25512294  0.11670838  0.59546930    -0.22700
C565        C  0.81159036  0.97819775  0.56540681    -0.05600
C566        C  0.83293155  0.02810430  0.57726961     0.00400
C567        C  0.79774982  0.07095904  0.59190793    -0.08200
C568        C  0.74283478  0.06033998  0.60154710    -0.05600
C569        C  0.72509196  0.00781822  0.60488800     0.00300
C570        C  0.75700836  0.96783803  0.57730394    -0.08100
C571        C  0.73591431  0.91332271  0.56379969     0.62300
H572        H  0.83815498  0.94664461  0.54926434     0.12900
H573        H  0.71630531  0.09243715  0.61633181     0.13000
C574        C  0.81602159  0.12751788  0.60078356     0.62500
F575        F  0.74586985  0.90156929  0.50926397    -0.22700
F576        F  0.68076398  0.91020435  0.57472655    -0.20000
F577        F  0.76215304  0.87624636  0.59332684    -0.19700
F578        F  0.87103247  0.13405645  0.59285398    -0.19700
F579        F  0.80191588  0.14444458  0.65322452    -0.20100
F580        F  0.79039553  0.15924019  0.56528906    -0.22700
C581        C  0.04650536  0.04383830  0.79546783    -0.05600
C582        C  0.04655456  0.00780823  0.75116127     0.00400
C583        C  0.06487758  0.95537372  0.75772102    -0.08200
C584        C  0.09443710  0.94447084  0.80316635    -0.05600
C585        C  0.10677034  0.98516897  0.84024270     0.00300
C586        C  0.07401340  0.03136750  0.84196403    -0.08100
C587        C  0.07137348  0.06929075  0.89049479     0.62300
H588        H  0.02860493  0.08277422  0.79230982     0.12900
H589        H  0.11476401  0.90646863  0.80461888     0.13000
C590        C  0.05704659  0.91046172  0.71703989     0.62500
F591        F  0.01797856  0.07684708  0.90801994    -0.22700
F592        F  0.09286800  0.11727604  0.87663017    -0.20000
F593        F  0.09942007  0.04986619  0.93290290    -0.19700
F594        F  0.02752759  0.87219745  0.74278779    -0.19700
F595        F  0.10676449  0.88969074  0.69910398    -0.20100
F596        F  0.02931351  0.92464687  0.67249440    -0.22700
C597        C  0.44669148  0.72774672  0.98302816    -0.05600
C598        C  0.42211837  0.71014907  0.03140411     0.00400
C599        C  0.44291344  0.72944722  0.08039998    -0.08200
C600        C  0.46756418  0.77878584  0.08089651    -0.05600
C601        C  0.47762053  0.80465326  0.03255730     0.00300
C602        C  0.47330105  0.77635397  0.98262449    -0.08100
C603        C  0.49040015  0.79793479  0.92828411     0.62300
H604        H  0.43643000  0.70931102  0.94470766     0.12900
H605        H  0.47500292  0.79884234  0.11920639     0.13000
C606        C  0.43480461  0.70198080  0.13291096     0.62500
F607        F  0.52258015  0.76078984  0.89957557    -0.22700
F608        F  0.51953834  0.84392808  0.93307486    -0.20000
F609        F  0.44503055  0.80784252  0.89942954    -0.19700
F610        F  0.39401781  0.72687686  0.16412423    -0.19700
F611        F  0.48219803  0.70431163  0.16030112    -0.20100
F612        F  0.42183178  0.64955294  0.12410823    -0.22700
C613        C  0.24613241  0.01848221  0.07744291    -0.05600
C614        C  0.28877760  0.01243413  0.03853920     0.00400
C615        C  0.28420509  0.03475697  0.98713577    -0.08200
C616        C  0.24277944  0.07188733  0.98092120    -0.05600
C617        C  0.20970243  0.08891611  0.02576095     0.00300
C618        C  0.20560307  0.05660261  0.07125385    -0.08100
C619        C  0.16292160  0.06562156  0.11629431     0.62300
H620        H  0.24863303  0.99926354  0.11576289     0.12900
H621        H  0.24271755  0.09426009  0.94442624     0.13000
C622        C  0.32628847  0.02379051  0.94128670     0.62500
F623        F  0.13768484  0.01839960  0.12688234    -0.22700
F624        F  0.12386761  0.10162270  0.10246976    -0.20000
F625        F  0.18679390  0.08408157  0.16262983    -0.19700
F626        F  0.31511661  0.05119965  0.89569865    -0.19700
F627        F  0.32723677  0.97047996  0.92751149    -0.20100
F628        F  0.37705459  0.03872499  0.95640883    -0.22700
C629        C  0.69509982  0.97965980  0.97261895    -0.05600
C630        C  0.67671004  0.99176936  0.02584377     0.00400
C631        C  0.71238556  0.98729523  0.06837239    -0.08200
C632        C  0.76024589  0.95777203  0.05805229    -0.05600
C633        C  0.76995596  0.93183409  0.00728990     0.00300
C634        C  0.74396538  0.95231248  0.96240038    -0.08100
C635        C  0.76255559  0.94094085  0.90412819     0.62300
H636        H  0.66921011  0.98738357  0.93950915     0.12900
H637        H  0.78378306  0.94636014  0.09173458     0.13000
C638        C  0.69625179  0.00709030  0.12520840     0.62500
F639        F  0.76033419  0.98698014  0.87574330    -0.22700
F640        F  0.72885159  0.90427051  0.88090717    -0.20000
F641        F  0.81533803  0.92229088  0.90004396    -0.19700
F642        F  0.67883395  0.05908190  0.12431710    -0.19700
F643        F  0.73918558  0.00466793  0.15897851    -0.20100
F644        F  0.65486626  0.97672402  0.14611728    -0.22700
C645        C  0.52582012  0.25487385  0.99281504    -0.05600
C646        C  0.55474089  0.27152109  0.03770140     0.00400
C647        C  0.53006514  0.26410226  0.08964818    -0.08200
C648        C  0.49583750  0.22087946  0.09575806    -0.05600
C649        C  0.48077954  0.19168055  0.05000032     0.00300
C650        C  0.48758531  0.21443750  0.99873899    -0.08100
C651        C  0.45829331  0.19281006  0.95066174     0.62300
H652        H  0.53980518  0.26589922  0.95272438     0.12900
H653        H  0.48638109  0.20651216  0.13581907     0.13000
C654        C  0.54568990  0.29530098  0.13944129     0.62500
F655        F  0.47181305  0.22021807  0.90479382    -0.22700
F656        F  0.40318852  0.19809400  0.96127117    -0.20000
F657        F  0.47097042  0.14005699  0.94055415    -0.19700
F658        F  0.57620964  0.26381388  0.17115573    -0.19700
F659        F  0.49953315  0.31193182  0.16898477    -0.20100
F660        F  0.57502266  0.33942509  0.12580981    -0.22700
C661        C  0.93510842  0.32838835  0.68076397    -0.05600
C662        C  0.97645623  0.35130461  0.71038944     0.00400
C663        C  0.03072071  0.34085140  0.69217341    -0.08200
C664        C  0.04134845  0.29611348  0.65776951    -0.05600
C665        C  0.99846217  0.26291796  0.64426538     0.00300
C666        C  0.94803366  0.28809062  0.64191368    -0.08100
C667        C  0.90687468  0.26749800  0.60435667     0.62300
H668        H  0.89368170  0.34208878  0.68741640     0.12900
H669        H  0.08250485  0.28207452  0.65007927     0.13000
C670        C  0.07597174  0.37707053  0.70792670     0.62500
F671        F  0.86833869  0.23947831  0.63257800    -0.22700
F672        F  0.93072172  0.23466280  0.56406873    -0.20000
F673        F  0.88305066  0.30986779  0.58081353    -0.19700
F674        F  0.08329957  0.37638159  0.76283238    -0.19700
F675        F  0.06321805  0.42802322  0.69435459    -0.20100
F676        F  0.12407769  0.36223960  0.68101798    -0.22700
C677        C  0.94820392  0.32690636  0.01281687    -0.05600
C678        C  0.98877720  0.36151938  0.99684138     0.00400
C679        C  0.03630256  0.36466250  0.02659030    -0.08200
C680        C  0.03883128  0.33709693  0.07517816    -0.05600
C681        C  0.99590106  0.30569021  0.09429782     0.00300
C682        C  0.95114623  0.29778880  0.06009950    -0.08100
C683        C  0.90502500  0.26043311  0.07273138     0.62300
H684        H  0.91264408  0.32467892  0.98889618     0.12900
H685        H  0.07374872  0.34173932  0.09960764     0.13000
C686        C  0.08410933  0.39692975  0.00683781     0.62500
F687        F  0.92478140  0.21290171  0.09001757    -0.22700
F688        F  0.87540645  0.24926702  0.02761882    -0.20000
F689        F  0.87022699  0.28355564  0.11192725    -0.19700
F690        F  0.09923484  0.38106579  0.95426014    -0.19700
F691        F  0.12829442  0.39036063  0.03840722    -0.20100
F692        F  0.07055181  0.45000437  0.00824407    -0.22700
C693        C  0.95716459  0.63027122  0.67538715    -0.05600
C694        C  0.99697930  0.60765376  0.70630719     0.00400
C695        C  0.05202872  0.61731799  0.69257192    -0.08200
C696        C  0.06401743  0.66065137  0.66065855    -0.05600
C697        C  0.02208831  0.69221604  0.64162805     0.00300
C698        C  0.97089648  0.66863382  0.63798911    -0.08100
C699        C  0.92954223  0.68783212  0.59985787     0.62300
H700        H  0.91530925  0.61894887  0.68136649     0.12900
H701        H  0.10535165  0.67419148  0.65806431     0.13000
C702        C  0.09888423  0.58619838  0.71340446     0.62500
F703        F  0.89916431  0.72938353  0.62277844    -0.22700
F704        F  0.89547783  0.64715283  0.58654204    -0.20000
F705        F  0.95473495  0.70407460  0.55270396    -0.19700
F706        F  0.12622765  0.61776252  0.74929481    -0.19700
F707        F  0.13394966  0.57136118  0.67047925    -0.20100
F708        F  0.08283967  0.54084883  0.73884492    -0.22700
C709        C  0.97322338  0.69786323  0.05764814    -0.05600
C710        C  0.00846849  0.67796279  0.09532346     0.00400
C711        C  0.04014571  0.63228209  0.08074251    -0.08200
C712        C  0.03380716  0.60766392  0.02959012    -0.05600
C713        C  0.99456361  0.62454845  0.99421891     0.00300
C714        C  0.96463669  0.67159271  0.00781413    -0.08100
C715        C  0.92185506  0.69548177  0.97349884     0.62300
H716        H  0.94962159  0.73322772  0.06860423     0.12900
H717        H  0.05628923  0.57174488  0.01850492     0.13000
C718        C  0.07713568  0.60679072  0.12008536     0.62500
F719        F  0.87391993  0.70148327  0.00403474    -0.22700
F720        F  0.91131225  0.66560416  0.92768613    -0.20000
F721        F  0.93867356  0.74475739  0.95773623    -0.19700
F722        F  0.04811350  0.59573819  0.16734851    -0.19700
F723        F  0.11893382  0.64038828  0.13178103    -0.20100
F724        F  0.09974260  0.55982281  0.09906870    -0.22700
C725        C  0.48314849  0.46326777  0.24542215    -0.05600
C726        C  0.49051368  0.51361559  0.22474206     0.00400
C727        C  0.47916488  0.55846240  0.25918037    -0.08200
C728        C  0.44700851  0.55178343  0.30647265    -0.05600
C729        C  0.42506940  0.50209886  0.31724218     0.00300
C730        C  0.45249401  0.45714288  0.29368375    -0.08100
C731        C  0.44672904  0.40252685  0.31572467     0.62300
H732        H  0.49648430  0.42860386  0.22137914     0.12900
H733        H  0.43143452  0.58660597  0.32887252     0.13000
C734        C  0.49518808  0.61387291  0.24536617     0.62500
F735        F  0.49758797  0.38148147  0.32273354    -0.22700
F736        F  0.42023037  0.37038443  0.27950463    -0.20000
F737        F  0.41856787  0.40364777  0.36532809    -0.19700
F738        F  0.52634039  0.61523832  0.19770185    -0.19700
F739        F  0.52491809  0.63530937  0.28653287    -0.20100
F740        F  0.44905897  0.64431921  0.24090198    -0.22700
C741        C  0.72572749  0.53314413  0.02618505    -0.05600
C742        C  0.69628339  0.48643099  0.02366653     0.00400
C743        C  0.72160554  0.43838328  0.03574996    -0.08200
C744        C  0.76949971  0.44069431  0.06406749    -0.05600
C745        C  0.78706192  0.48990505  0.08390540     0.00300
C746        C  0.77320703  0.53484559  0.05468855    -0.08100
C747        C  0.80281644  0.58641422  0.05901265     0.62300
H748        H  0.70847779  0.56937103  0.01196040     0.12900
H749        H  0.78546314  0.40503809  0.08066868     0.13000
C750        C  0.69551312  0.38611484  0.02313419     0.62500
F751        F  0.82083500  0.60035781  0.00781670    -0.22700
F752        F  0.84690929  0.58257986  0.09108412    -0.20000
F753        F  0.76817302  0.62545972  0.08082794    -0.19700
F754        F  0.64674691  0.38273009  0.05198076    -0.19700
F755        F  0.72823412  0.34446440  0.03647317    -0.20100
F756        F  0.68663599  0.38175237  0.96838974    -0.22700
C757        C  0.23282594  0.46399578  0.98806828    -0.05600
C758        C  0.21079183  0.50930588  0.96559351     0.00400
C759        C  0.22242393  0.55893380  0.99014898    -0.08200
C760        C  0.27021195  0.56357527  0.01810420    -0.05600
C761        C  0.30180664  0.51874133  0.02642140     0.00300
C762        C  0.27955738  0.46804279  0.01809091    -0.08100
C763        C  0.30895846  0.41866301  0.03449352     0.62300
H764        H  0.22005417  0.42537625  0.97399672     0.12900
H765        H  0.28552174  0.60239096  0.02828132     0.13000
C766        C  0.19003898  0.60826707  0.98096662     0.62500
F767        F  0.27775970  0.37411709  0.02775767    -0.22700
F768        F  0.32094532  0.42353737  0.08846230    -0.20000
F769        F  0.35646137  0.41145361  0.00352901    -0.19700
F770        F  0.14102640  0.59667544  0.95891701    -0.19700
F771        F  0.21933300  0.63961313  0.94630795    -0.20100
F772        F  0.17991633  0.63574184  0.02963954    -0.22700
C773        C  0.51774465  0.54020625  0.79529620    -0.05600
C774        C  0.50908917  0.49572564  0.82623872     0.00400
C775        C  0.52630126  0.44570309  0.80447066    -0.08200
C776        C  0.56569021  0.44419681  0.76175419    -0.05600
C777        C  0.58730242  0.49158718  0.74237381     0.00300
C778        C  0.55622836  0.53814595  0.75200008    -0.08100
C779        C  0.56703776  0.58759889  0.72220219     0.62300
H780        H  0.50097565  0.57809354  0.80967507     0.12900
H781        H  0.58596833  0.40701076  0.75094194     0.13000
C782        C  0.51227188  0.39552353  0.83320025     0.62500
F783        F  0.51873916  0.60611717  0.70414972    -0.22700
F784        F  0.60238248  0.57901401  0.67786898    -0.20000
F785        F  0.58845191  0.62435981  0.75733766    -0.19700
F786        F  0.54374459  0.39063945  0.87757693    -0.19700
F787        F  0.52104012  0.35166186  0.79900600    -0.20100
F788        F  0.45834786  0.39657029  0.85025476    -0.22700
C789        C  0.04489741  0.71419785  0.48262564    -0.05600
C790        C  0.06691779  0.66313793  0.48535484     0.00400
C791        C  0.11265785  0.65480968  0.51626233    -0.08200
C792        C  0.12926037  0.69566125  0.54989048    -0.05600
C793        C  0.11010362  0.74757835  0.54503913     0.00300
C794        C  0.06620927  0.75698134  0.51184013    -0.08100
C795        C  0.04187342  0.81137011  0.50523867     0.62300
H796        H  0.01029544  0.72054490  0.45817262     0.12900
H797        H  0.16342686  0.68768243  0.57424675     0.13000
C798        C  0.14855187  0.60574818  0.51210647     0.62500
F799        F  0.98645295  0.80957925  0.51454761    -0.22700
F800        F  0.05286019  0.82707517  0.45294707    -0.20000
F801        F  0.06181789  0.84868527  0.54101497    -0.19700
F802        F  0.20142353  0.62033765  0.50074471    -0.19700
F803        F  0.13446161  0.57096324  0.47148961    -0.20100
F804        F  0.14635333  0.58034897  0.56066848    -0.22700
C805        C  0.22170686  0.44034073  0.49357741    -0.05600
C806        C  0.22727365  0.41747906  0.54371562     0.00400
C807        C  0.18863704  0.43281181  0.58436709    -0.08200
C808        C  0.13535871  0.43971405  0.56883379    -0.05600
C809        C  0.12471116  0.44585531  0.51390724     0.00300
C810        C  0.16980212  0.45241213  0.47642304    -0.08100
C811        C  0.16684615  0.46822209  0.41793207     0.62300
H812        H  0.25507042  0.43684007  0.46372148     0.12900
H813        H  0.10277235  0.44005109  0.59916874     0.13000
C814        C  0.20549344  0.44640312  0.64110096     0.62500
F815        F  0.20096053  0.51020218  0.40883796    -0.22700
F816        F  0.11583180  0.48318889  0.40418523    -0.20000
F817        F  0.18404902  0.42634509  0.38409487    -0.19700
F818        F  0.22800547  0.40311116  0.66433157    -0.19700
F819        F  0.16223264  0.46465187  0.67389247    -0.20100
F820        F  0.24345943  0.48597976  0.63883954    -0.22700
C821        C  0.86031720  0.40615025  0.39541592    -0.05600
C822        C  0.90178566  0.36719071  0.39307218     0.00400
C823        C  0.89594158  0.32362195  0.42713651    -0.08200
C824        C  0.85398190  0.32455611  0.46688885    -0.05600
C825        C  0.81450639  0.36496377  0.47106965     0.00300
C826        C  0.81499945  0.40379467  0.43135466    -0.08100
C827        C  0.76773916  0.44203635  0.42628617     0.62300
H828        H  0.86340294  0.43952916  0.37000784     0.12900
H829        H  0.84986369  0.29096389  0.49250600     0.13000
C830        C  0.93390042  0.27606136  0.42394850     0.62500
F831        F  0.77896784  0.47992005  0.38849426    -0.22700
F832        F  0.75509306  0.46746167  0.47555661    -0.20000
F833        F  0.72301676  0.41482948  0.40968227    -0.19700
F834        F  0.96180605  0.27091620  0.37441590    -0.19700
F835        F  0.90484408  0.23023613  0.43092191    -0.20100
F836        F  0.97039140  0.28084392  0.46446591    -0.22700
C837        C  0.89006819  0.53275877  0.41583490    -0.05600
C838        C  0.89258428  0.55199855  0.36278480     0.00400
C839        C  0.85646504  0.59190815  0.34970898    -0.08200
C840        C  0.81717282  0.60953342  0.38858949    -0.05600
C841        C  0.81604797  0.59340042  0.44282614     0.00300
C842        C  0.85274609  0.55300544  0.45642863    -0.08100
C843        C  0.85562069  0.53132235  0.51267684     0.62300
H844        H  0.92014622  0.50399167  0.42649574     0.12900
H845        H  0.78965855  0.63984664  0.37710491     0.13000
C846        C  0.86344875  0.62004744  0.29690526     0.62500
F847        F  0.86273174  0.47710547  0.50934965    -0.22700
F848        F  0.80925011  0.54203146  0.54441444    -0.20000
F849        F  0.89939127  0.55272641  0.53772755    -0.19700
F850        F  0.85976928  0.58456632  0.25369989    -0.19700
F851        F  0.91355295  0.64342027  0.29391951    -0.20100
F852        F  0.82478805  0.65923504  0.29306058    -0.22700
C853        C  0.44585063  0.04961653  0.77262821    -0.05600
C854        C  0.48862795  0.07274194  0.80016237     0.00400
C855        C  0.53851272  0.04506645  0.79881501    -0.08200
C856        C  0.55088904  0.01013276  0.75467990    -0.05600
C857        C  0.51196286  0.99956771  0.71648534     0.00300
C858        C  0.45703407  0.01217600  0.73025773    -0.08100
C859        C  0.41239585  0.99509858  0.69365983     0.62300
H860        H  0.40588981  0.06744875  0.77693872     0.12900
H861        H  0.59211351  0.99632332  0.74685108     0.13000
C862        C  0.58037713  0.05564208  0.84020866     0.62500
F863        F  0.41891103  0.94218313  0.67899860    -0.22700
F864        F  0.41376825  0.02436653  0.64745731    -0.20000
F865        F  0.36205286  0.00197967  0.71961141    -0.19700
F866        F  0.56006321  0.08808833  0.88257921    -0.19700
F867        F  0.62472566  0.07933108  0.81609418    -0.20100
F868        F  0.59633272  0.00833544  0.86119803    -0.22700
C869        C  0.54266387  0.26203903  0.47378624    -0.05600
C870        C  0.49147111  0.26713609  0.45212418     0.00400
C871        C  0.44706728  0.24416785  0.48040768    -0.08200
C872        C  0.45765698  0.20064878  0.51169879    -0.05600
C873        C  0.51105243  0.18432277  0.51813365     0.00300
C874        C  0.55355228  0.21908376  0.50594267    -0.08100
C875        C  0.61117561  0.20910776  0.52047965     0.62300
H876        H  0.57631847  0.28430426  0.45723670     0.12900
H877        H  0.42463257  0.17580322  0.52509766     0.13000
C878        C  0.38881306  0.25915047  0.47240557     0.62500
F879        F  0.64279167  0.20006546  0.47358581    -0.22700
F880        F  0.61678756  0.16640472  0.55312513    -0.20000
F881        F  0.62905455  0.25330877  0.54823991    -0.19700
F882        F  0.36451031  0.21961304  0.44252253    -0.19700
F883        F  0.38472957  0.30641894  0.44633695    -0.20100
F884        F  0.36163108  0.26505564  0.52227966    -0.22700
C885        C  0.45884477  0.97993386  0.30345905    -0.05600
C886        C  0.51137320  0.98339739  0.32203664     0.00400
C887        C  0.55592311  0.97302154  0.28545253    -0.08200
C888        C  0.54630670  0.94611456  0.23629886    -0.05600
C889        C  0.49445846  0.92633603  0.22759645     0.00300
C890        C  0.45015560  0.95386095  0.25383988    -0.08100
C891        C  0.39326719  0.94988617  0.23466026     0.62300
H892        H  0.42463674  0.99273889  0.32968141     0.12900
H893        H  0.58029549  0.93026865  0.21166839     0.13000
C894        C  0.61318686  0.98420966  0.30115397     0.62500
F895        F  0.37159602  0.00005331  0.23055135    -0.22700
F896        F  0.36189198  0.92255327  0.27157736    -0.20000
F897        F  0.39221649  0.92433996  0.18436731    -0.19700
F898        F  0.64918581  0.97884902  0.25698985    -0.19700
F899        F  0.62828198  0.94947868  0.33981382    -0.20100
F900        F  0.61661383  0.03534936  0.32185366    -0.22700
C901        C  0.46393708  0.73721089  0.57256388    -0.05600
C902        C  0.51057544  0.71157302  0.58884686     0.00400
C903        C  0.55938874  0.71877603  0.55829177    -0.08200
C904        C  0.56468111  0.76444292  0.52815635    -0.05600
C905        C  0.52100870  0.79983799  0.52624007     0.00300
C906        C  0.46866498  0.78374551  0.54381493    -0.08100
C907        C  0.41923572  0.81853677  0.53823195     0.62300
H908        H  0.42529343  0.72757188  0.59164958     0.12900
H909        H  0.60411225  0.77528144  0.51157594     0.13000
C910        C  0.60743040  0.68209109  0.56133489     0.62500
F911        F  0.41427315  0.82995776  0.48453380    -0.22700
F912        F  0.42393912  0.86501106  0.56847863    -0.20000
F913        F  0.37232507  0.79399321  0.55590275    -0.19700
F914        F  0.59386516  0.63690229  0.58835915    -0.19700
F915        F  0.64821103  0.70761653  0.58769141    -0.20100
F916        F  0.62592276  0.66714081  0.50951886    -0.22700
loop_ 
_geom_bond_atom_site_label_1 
_geom_bond_atom_site_label_2 
_geom_bond_distance 
_geom_bond_site_symmetry_2 
_ccdc_geom_bond_type 
N1            C6   1.351       .  A
N1            C5   1.350       .  A
N1           H33   1.029       .  S
N2            C9   1.352       .  A
N2           C10   1.348       .  A
N3            C8   1.353       .  A
N3            C7   1.353       .  A
N3           H34   1.030       .  S
N4           C11   1.348       .  A
N4           C12   1.350       .  A
C5           C13   1.390       .  A
C5           C21   1.420   1_545  A
C6           C22   1.404       .  A
C6           C14   1.381       .  A
C7           C15   1.386       .  A
C7           C24   1.415       .  A
C8           C23   1.420       .  A
C8           C16   1.389       .  A
C9           C21   1.407       .  A
C9           C17   1.381       .  A
C10          C24   1.421       .  A
C10          C18   1.392       .  A
C11          C19   1.389       .  A
C11          C22   1.415       .  A
C12          C20   1.383       .  A
C12          C23   1.405   1_545  A
C13          C14   1.362       .  A
C13          H25   1.073       .  S
C14          H26   1.083       .  S
C15          C16   1.373       .  A
C15          H27   1.083       .  S
C16          H28   1.081       .  S
C17          C18   1.371       .  A
C17          H29   1.082       .  S
C18          H30   1.081       .  S
C19          C20   1.365       .  A
C19          H31   1.078       .  S
C20          H32   1.083       .  S
C21         C857   1.486       .  S
C22         C873   1.474       .  S
C23         C886   1.480       .  S
C24         C905   1.482       .  S
N35          C40   1.348       .  A
N35          C39   1.349       .  A
N35          H67   1.040       .  S
N36          C43   1.346   1_655  A
N36          C44   1.345       .  A
N37          C42   1.345       .  A
N37          C41   1.352       .  A
N37          H68   1.043   1_655  S
N38          C45   1.332   1_655  A
N38          C46   1.341       .  A
C39          C47   1.384       .  A
C39          C55   1.405       .  A
C40          C56   1.416       .  A
C40          C48   1.380       .  A
C41          C49   1.386       .  A
C41          C58   1.414       .  A
C42          C57   1.403       .  A
C42          C50   1.388       .  A
C43          C55   1.407       .  A
C43          C51   1.389       .  A
C44          C58   1.395       .  A
C44          C52   1.379   1_655  A
C45          C53   1.390       .  A
C45          C56   1.389       .  A
C46          C54   1.383   1_655  A
C46          C57   1.403       .  A
C47          C48   1.371       .  A
C47          H59   1.079       .  S
C48          H60   1.069       .  S
C49          C50   1.380       .  A
C49          H61   1.083       .  S
C50          H62   1.081       .  S
C51          C52   1.379       .  A
C51          H63   1.081       .  S
C52          H64   1.081       .  S
C53          C54   1.386       .  A
C53          H65   1.082       .  S
C54          H66   1.082       .  S
C55         C809   1.491       .  S
C56         C790   1.471       .  S
C57         C838   1.493       .  S
C58         C822   1.503       .  S
N69          C74   1.356       .  A
N69          C73   1.352       .  A
N69         H101   1.035       .  S
N70          C77   1.350       .  A
N70          C78   1.351       .  A
N71          C76   1.352       .  A
N71          C75   1.353       .  A
N71         H102   1.030       .  S
N72          C79   1.346       .  A
N72          C80   1.349       .  A
C73          C81   1.393       .  A
C73          C89   1.425   1_556  A
C74          C90   1.411       .  A
C74          C82   1.382       .  A
C75          C83   1.385       .  A
C75          C92   1.414       .  A
C76          C91   1.423       .  A
C76          C84   1.390       .  A
C77          C89   1.411       .  A
C77          C85   1.384       .  A
C78          C92   1.422       .  A
C78          C86   1.390       .  A
C79          C87   1.389       .  A
C79          C90   1.415       .  A
C80          C88   1.382       .  A
C80          C91   1.404   1_556  A
C81          C82   1.370       .  A
C81          H93   1.080       .  S
C82          H94   1.082       .  S
C83          C84   1.371       .  A
C83          H95   1.082       .  S
C84          H96   1.078       .  S
C85          C86   1.370       .  A
C85          H97   1.082       .  S
C86          H98   1.080       .  S
C87          C88   1.362       .  A
C87          H99   1.074       .  S
C88         H100   1.082       .  S
C89         C761   1.483       .  S
C90         C774   1.483       .  S
C91         C742   1.480       .  S
C92         C726   1.485       .  S
N103        C108   1.354       .  A
N103        C107   1.359       .  A
N103        H135   1.041       .  S
N104        C111   1.348       .  A
N104        C112   1.348       .  A
N105        C110   1.353       .  A
N105        C109   1.356       .  A
N105        H136   1.041       .  S
N106        C113   1.346       .  A
N106        C114   1.346       .  A
C107        C115   1.382   1_655  A
C107        C123   1.416       .  A
C108        C124   1.424       .  A
C108        C116   1.383       .  A
C109        C117   1.384   1_655  A
C109        C126   1.418       .  A
C110        C125   1.426       .  A
C110        C118   1.390   1_655  A
C111        C123   1.406       .  A
C111        C119   1.385   1_556  A
C112        C126   1.413       .  A
C112        C120   1.388   1_556  A
C113        C121   1.386       .  A
C113        C124   1.402       .  A
C114        C122   1.389       .  A
C114        C125   1.406       .  A
C115        C116   1.377   1_455  A
C115        H127   1.082       .  S
C116        H128   1.070   1_655  S
C117        C118   1.381       .  A
C117        H129   1.082       .  S
C118        H130   1.079       .  S
C119        C120   1.372       .  A
C119        H131   1.082       .  S
C120        H132   1.081       .  S
C121        C122   1.363       .  A
C121        H133   1.081       .  S
C122        H134   1.080       .  S
C123        C678   1.496       .  S
C124        C662   1.489       .  S
C125        C694   1.483       .  S
C126        C713   1.498       .  S
N137        C142   1.349       .  A
N137        C141   1.351       .  A
N137        H169   1.038       .  S
N138        C145   1.349       .  A
N138        C146   1.350       .  A
N139        C144   1.351       .  A
N139        C143   1.347       .  A
N139        H170   1.037       .  S
N140        C147   1.349       .  A
N140        C148   1.349       .  A
C141        C149   1.384       .  A
C141        C157   1.406       .  A
C142        C158   1.414       .  A
C142        C150   1.390       .  A
C143        C151   1.392       .  A
C143        C160   1.416       .  A
C144        C159   1.407       .  A
C144        C152   1.383       .  A
C145        C157   1.413       .  A
C145        C153   1.389       .  A
C146        C160   1.407   1_565  A
C146        C154   1.384       .  A
C147        C155   1.380       .  A
C147        C158   1.401   1_545  A
C148        C156   1.389       .  A
C148        C159   1.419       .  A
C149        C150   1.372       .  A
C149        H161   1.082       .  S
C150        H162   1.081       .  S
C151        C152   1.376       .  A
C151        H163   1.080       .  S
C152        H164   1.082       .  S
C153        C154   1.374       .  A
C153        H165   1.082       .  S
C154        H166   1.082       .  S
C155        C156   1.366       .  A
C155        H167   1.082       .  S
C156        H168   1.071       .  S
C157        C601   1.477       .  S
C158        C630   1.475       .  S
C159        C649   1.484       .  S
C160        C614   1.478       .  S
Zn171       O175   2.021       .  S
Zn171       O176   2.075       .  S
Zn171       O180   2.132       .  S
Zn171       O187   2.139       .  S
Zn172       O175   1.993       .  S
Zn172       O177   2.097       .  S
Zn172       O179   2.126       .  S
Zn172       O183   2.105       .  S
Zn173       O175   1.942       .  S
Zn173       O178   1.986       .  S
Zn173       O181   2.063       .  S
Zn173       O184   2.002       .  S
Zn174       O175   1.996       .  S
Zn174       O182   2.118       .  S
Zn174       O185   2.048       .  S
Zn174       O186   1.968       .  S
O176        C188   1.283       .  A
O177        C189   1.281       .  A
O178        C190   1.273       .  A
O179        C188   1.284       .  A
O180        C190   1.284       .  A
O181        C189   1.276       .  A
O182        C191   1.276       .  A
O183        C192   1.289       .  A
O184        C191   1.274       .  A
O185        C192   1.276       .  A
O186        C193   1.273       .  A
O187        C193   1.286       .  A
C188        C521   1.510       .  S
C189        C531   1.506       .  S
C190        C517   1.493       .  S
C191        C507   1.498       .  S
C192        C513   1.488       .  S
C193        C467   1.488       .  S
Zn194       O198   1.965       .  S
Zn194       O199   2.106       .  S
Zn194       O203   2.018       .  S
Zn194       O210   2.144       .  S
Zn195       O198   1.997       .  S
Zn195       O200   2.170       .  S
Zn195       O202   2.045       .  S
Zn195       O206   2.126       .  S
Zn196       O198   1.975       .  S
Zn196       O201   2.101       .  S
Zn196       O204   2.059       .  S
Zn196       O207   2.121       .  S
Zn197       O198   1.916       .  S
Zn197       O205   1.999       .  S
Zn197       O208   2.004       .  S
Zn197       O209   2.006       .  S
O199        C211   1.286       .  A
O200        C212   1.287       .  A
O201        C213   1.284       .  A
O202        C211   1.285       .  A
O203        C213   1.280       .  A
O204        C212   1.282       .  A
O205        C214   1.277       .  A
O206        C215   1.286       .  A
O207        C214   1.285       .  A
O208        C215   1.266       .  A
O209        C216   1.269       .  A
O210        C216   1.286       .  A
C211        C515   1.491       .  S
C212        C497   1.523       .  S
C213        C451   1.486       .  S
C214        C509   1.489       .  S
C215        C465   1.477       .  S
C216        C489   1.495       .  S
Zn217       O221   1.978       .  S
Zn217       O222   2.043       .  S
Zn217       O226   2.046       .  S
Zn217       O233   2.102       .  S
Zn218       O221   1.967       .  S
Zn218       O223   1.993       .  S
Zn218       O225   2.099       .  S
Zn218       O229   2.044       .  S
Zn219       O221   2.049       .  S
Zn219       O224   2.132       .  S
Zn219       O227   2.153       .  S
Zn219       O230   2.147       .  S
Zn220       O221   1.946       .  S
Zn220       O228   1.984       .  S
Zn220       O231   2.069       .  S
Zn220       O232   2.041       .  S
O222        C234   1.277       .  A
O223        C235   1.277       .  A
O224        C236   1.287       .  A
O225        C234   1.280       .  A
O226        C236   1.281       .  A
O227        C235   1.284       .  A
O228        C237   1.274       .  A
O229        C238   1.275       .  A
O230        C237   1.291       .  A
O231        C238   1.274       .  A
O232        C239   1.281       .  A
O233        C239   1.278       .  A
C234        C435   1.499       .  S
C235        C503   1.506       .  S
C236        C481   1.502       .  S
C237        C423   1.492       .  S
C238        C493   1.487       .  S
C239        C525   1.496       .  S
Zn240       O244   1.937       .  S
Zn240       O245   2.071       .  S
Zn240       O249   1.993       .  S
Zn240       O256   2.110       .  S
Zn241       O244   1.920       .  S
Zn241       O246   2.006       .  S
Zn241       O248   2.025       .  S
Zn241       O252   1.975       .  S
Zn242       O244   2.001       .  S
Zn242       O247   2.135       .  S
Zn242       O250   2.157       .  S
Zn242       O253   2.027       .  S
Zn243       O244   1.991       .  S
Zn243       O251   2.090       .  S
Zn243       O254   2.105       .  S
Zn243       O255   2.099       .  S
O245        C257   1.281       .  A
O246        C258   1.275       .  A
O247        C259   1.287       .  A
O248        C257   1.267       .  A
O249        C259   1.275       .  A
O250        C258   1.287       .  A
O251        C260   1.283       .  A
O252        C261   1.268       .  A
O253        C260   1.279       .  A
O254        C261   1.281       .  A
O255        C262   1.286       .  A
O256        C262   1.283       .  A
C257        C479   1.483       .  S
C258        C485   1.504       .  S
C259        C477   1.489       .  S
C260        C491   1.479       .  S
C261        C405   1.473       .  S
C262        C501   1.505       .  S
Zn263       O267   1.951       .  S
Zn263       O268   1.968       .  S
Zn263       O272   2.023       .  S
Zn263       O279   2.069       .  S
Zn264       O267   2.038       .  S
Zn264       O269   2.177       .  S
Zn264       O271   2.145       .  S
Zn264       O275   2.052       .  S
Zn265       O267   1.944       .  S
Zn265       O270   2.058       .  S
Zn265       O273   1.993       .  S
Zn265       O276   1.983       .  S
Zn266       O267   2.017       .  S
Zn266       O274   2.126       .  S
Zn266       O277   2.108       .  S
Zn266       O278   2.070       .  S
O268        C280   1.274       .  A
O269        C281   1.284       .  A
O270        C282   1.269       .  A
O271        C280   1.287       .  A
O272        C282   1.274       .  A
O273        C281   1.275       .  A
O274        C283   1.281       .  A
O275        C284   1.283       .  A
O276        C283   1.274       .  A
O277        C284   1.287       .  A
O278        C285   1.282       .  A
O279        C285   1.274       .  A
C280        C459   1.494       .  S
C281        C425   1.511       .  S
C282        C469   1.480       .  S
C283        C445   1.493       .  S
C284        C527   1.491       .  S
C285        C415   1.496       .  S
Zn286       O290   1.973       .  S
Zn286       O291   2.051       .  S
Zn286       O295   1.995       .  S
Zn286       O302   2.097       .  S
Zn287       O290   1.969       .  S
Zn287       O292   2.087       .  S
Zn287       O294   2.062       .  S
Zn287       O298   1.985       .  S
Zn288       O290   1.963       .  S
Zn288       O293   2.134       .  S
Zn288       O296   2.089       .  S
Zn288       O299   2.040       .  S
Zn289       O290   2.006       .  S
Zn289       O297   2.091       .  S
Zn289       O300   2.102       .  S
Zn289       O301   2.052       .  S
O291        C303   1.278       .  A
O292        C304   1.276       .  A
O293        C305   1.287       .  A
O294        C303   1.278       .  A
O295        C305   1.276       .  A
O296        C304   1.281       .  A
O297        C306   1.281       .  A
O298        C307   1.274       .  A
O299        C306   1.285       .  A
O300        C307   1.279       .  A
O301        C308   1.282       .  A
O302        C308   1.277       .  A
C303        C449   1.479       .  S
C304        C370   1.503       .  S
C305        C443   1.493       .  S
C306        C461   1.494       .  S
C307        C455   1.483       .  S
C308        C437   1.500       .  S
Zn309       O313   1.996       .  S
Zn309       O314   2.039       .  S
Zn309       O318   2.071       .  S
Zn309       O325   2.117       .  S
Zn310       O313   1.915       .  S
Zn310       O315   2.021       .  S
Zn310       O317   2.038       .  S
Zn310       O321   1.938       .  S
Zn311       O313   1.970       .  S
Zn311       O316   2.002       .  S
Zn311       O319   2.148       .  S
Zn311       O322   2.011       .  S
Zn312       O313   2.008       .  S
Zn312       O320   2.117       .  S
Zn312       O323   2.146       .  S
Zn312       O324   2.045       .  S
O314        C326   1.278       .  A
O315        C327   1.275       .  A
O316        C328   1.275       .  A
O317        C326   1.271       .  A
O318        C328   1.282       .  A
O319        C327   1.278       .  A
O320        C329   1.285       .  A
O321        C330   1.269       .  A
O322        C329   1.278       .  A
O323        C330   1.284       .  A
O324        C331   1.281       .  A
O325        C331   1.282       .  A
C326        C419   1.471       .  S
C327        C429   1.514       .  S
C328        C409   1.466       .  S
C329        C431   1.489       .  S
C330        C397   1.493       .  S
C331        C413   1.499       .  S
N332        C337   1.352       .  A
N332        C336   1.358       .  A
N332        H364   1.039       .  S
N333        C340   1.349       .  A
N333        C341   1.347       .  A
N334        C339   1.353       .  A
N334        C338   1.353       .  A
N334        H365   1.037   1_655  S
N335        C342   1.353       .  A
N335        C343   1.351       .  A
C336        C344   1.378       .  A
C336        C352   1.407       .  A
C337        C353   1.425       .  A
C337        C345   1.390       .  A
C338        C346   1.387       .  A
C338        C355   1.414       .  A
C339        C354   1.414   1_655  A
C339        C347   1.387       .  A
C340        C352   1.410   1_655  A
C340        C348   1.390       .  A
C341        C355   1.402       .  A
C341        C349   1.383       .  A
C342        C350   1.384       .  A
C342        C353   1.411       .  A
C343        C351   1.389       .  A
C343        C354   1.419       .  A
C344        C345   1.364       .  A
C344        H356   1.083   1_545  S
C345        H357   1.067   1_545  S
C346        C347   1.374       .  A
C346        H358   1.083       .  S
C347        H359   1.082       .  S
C348        C349   1.361       .  A
C348        H360   1.078       .  S
C349        H361   1.083       .  S
C350        C351   1.371       .  A
C350        H362   1.082       .  S
C351        H363   1.082       .  S
C352        C534   1.486       .  S
C353        C550   1.491       .  S
C354        C582   1.485       .  S
C355        C566   1.474       .  S
C366        N367   1.356       .  A
C366        N371   1.382       .  A
C366        C391   1.496       .  S
N367        C368   1.355       .  A
C368        N369   1.357   1_545  A
C368        C553   1.499       .  S
N369        C370   1.359       .  A
C370        N371   1.382   1_565  A
Zn372       O376   2.015       .  S
Zn372       O377   2.147       .  S
Zn372       O381   2.111       .  S
Zn372       O388   2.133       .  S
Zn373       O376   1.887       .  S
Zn373       O378   1.914       .  S
Zn373       O380   1.966       .  S
Zn373       O384   1.991       .  S
Zn374       O376   2.005       .  S
Zn374       O379   2.066       .  S
Zn374       O382   2.119       .  S
Zn374       O385   2.006       .  S
Zn375       O376   2.011       .  S
Zn375       O383   2.074       .  S
Zn375       O386   2.147       .  S
Zn375       O387   2.017       .  S
O377        C389   1.287       .  A
O378        C390   1.262       .  A
O379        C391   1.278       .  A
O380        C389   1.266       .  A
O381        C391   1.287       .  A
O382        C390   1.276       .  A
O383        C392   1.279       .  A
O384        C393   1.271       .  A
O385        C392   1.278       .  A
O386        C393   1.282       .  A
O387        C394   1.279       .  A
O388        C394   1.290       .  A
C389        C473   1.485       .  S
C390        C407   1.478       .  S
C392        C401   1.474       .  S
C393        C441   1.500       .  S
C394        C395   1.496       .  S
C395        N396   1.380   1_455  A
C395        N400   1.373       .  A
N396        C397   1.374       .  A
C397        N398   1.356       .  A
N398        C399   1.340       .  A
C399        N400   1.358   1_655  A
C399        C681   1.510       .  S
C401        N402   1.355       .  A
C401        N406   1.372       .  A
N402        C403   1.348       .  A
C403        N404   1.348   1_554  A
C403        C617   1.479       .  S
N404        C405   1.359       .  A
C405        N406   1.372   1_556  A
C407        N408   1.372       .  A
C407        N412   1.355       .  A
N408        C409   1.377       .  A
C409        N410   1.357       .  A
N410        C411   1.347       .  A
C411        N412   1.341       .  A
C411        C870   1.486       .  S
C413        N414   1.380   1_545  A
C413        N418   1.356       .  A
N414        C415   1.382       .  A
C415        N416   1.359       .  A
N416        C417   1.353   1_565  A
C417        N418   1.352       .  A
C417        C537   1.493       .  S
C419        N420   1.350       .  A
C419        N424   1.374       .  A
N420        C421   1.347       .  A
C421        N422   1.357   1_554  A
C421        C646   1.493       .  S
N422        C423   1.368       .  A
C423        N424   1.374   1_556  A
C425        N426   1.354       .  A
C425        N430   1.391       .  A
N426        C427   1.343       .  A
C427        N428   1.348       .  A
C427        C745   1.488       .  S
N428        C429   1.360       .  A
C429        N430   1.393       .  A
C431        N432   1.349       .  A
C431        N436   1.381       .  A
N432        C433   1.342       .  A
C433        N434   1.360       .  A
C433        C825   1.483       .  S
N434        C435   1.368       .  A
C435        N436   1.383       .  A
C437        N438   1.358       .  A
C437        N442   1.386       .  A
N438        C439   1.350       .  A
C439        N440   1.348       .  A
C439        C729   1.491       .  S
N440        C441   1.356       .  A
C441        N442   1.383       .  A
C443        N444   1.381   1_455  A
C443        N448   1.364       .  A
N444        C445   1.379       .  A
C445        N446   1.358       .  A
N446        C447   1.345   1_655  A
C447        N448   1.348       .  A
C447        C710   1.491       .  S
C449        N450   1.376       .  A
C449        N454   1.357       .  A
N450        C451   1.373   1_554  A
C451        N452   1.355       .  A
N452        C453   1.352   1_556  A
C453        N454   1.353       .  A
C453        C598   1.492       .  S
C455        N456   1.356       .  A
C455        N460   1.379       .  A
N456        C457   1.344       .  A
C457        N458   1.348       .  A
C457        C889   1.492       .  S
N458        C459   1.361       .  A
C459        N460   1.379       .  A
C461        N462   1.356       .  A
C461        N466   1.382       .  A
N462        C463   1.345       .  A
C463        N464   1.350       .  A
C463        C793   1.469       .  S
N464        C465   1.360       .  A
C465        N466   1.383       .  A
C467        N468   1.376   1_556  A
C467        N472   1.356       .  A
N468        C469   1.380       .  A
C469        N470   1.357       .  A
N470        C471   1.349       .  A
C471        N472   1.344   1_554  A
C471        C633   1.490       .  S
C473        N474   1.350       .  A
C473        N478   1.380       .  A
N474        C475   1.349       .  A
C475        N476   1.347       .  A
C475        C806   1.479       .  S
N476        C477   1.360       .  A
C477        N478   1.382       .  A
C479        N480   1.385   1_455  A
C479        N484   1.356       .  A
N480        C481   1.380       .  A
C481        N482   1.361       .  A
N482        C483   1.357       .  A
C483        N484   1.348   1_655  A
C483        C665   1.500       .  S
C485        N486   1.353       .  A
C485        N490   1.385   1_545  A
N486        C487   1.345   1_545  A
C487        N488   1.352       .  A
C487        C585   1.488       .  S
N488        C489   1.361       .  A
C489        N490   1.390       .  A
C491        N492   1.375       .  A
C491        N496   1.358       .  A
N492        C493   1.375       .  A
C493        N494   1.358       .  A
N494        C495   1.356       .  A
C495        N496   1.351       .  A
C495        C854   1.490       .  S
C497        N498   1.357       .  A
C497        N502   1.389       .  A
N498        C499   1.352       .  A
C499        N500   1.352       .  A
C499        C758   1.494       .  S
N500        C501   1.356       .  A
C501        N502   1.392       .  A
C503        N504   1.360       .  A
C503        N508   1.388   1_545  A
N504        C505   1.345   1_545  A
C505        N506   1.344       .  A
C505        C569   1.494   1_565  S
N506        C507   1.359       .  A
C507        N508   1.390       .  A
C509        N510   1.363       .  A
C509        N514   1.387       .  A
N510        C511   1.348       .  A
C511        N512   1.346   1_455  A
C511        C697   1.494       .  S
N512        C513   1.356       .  A
C513        N514   1.386   1_655  A
C515        N516   1.382       .  A
C515        N520   1.358       .  A
N516        C517   1.379       .  A
C517        N518   1.356       .  A
N518        C519   1.348       .  A
C519        N520   1.351       .  A
C519        C902   1.484       .  S
C521        N522   1.361       .  A
C521        N526   1.386       .  A
N522        C523   1.357       .  A
C523        N524   1.345       .  A
C523        C777   1.493       .  S
N524        C525   1.353       .  A
C525        N526   1.386       .  A
C527        N528   1.352       .  A
C527        N532   1.372       .  A
N528        C529   1.353       .  A
C529        N530   1.368       .  A
C529        C841   1.503       .  S
N530        C531   1.372       .  A
C531        N532   1.378       .  A
C533        C534   1.403   1_665  A
C533        C538   1.403       .  A
C533        H540   1.084   1_655  S
C534        C535   1.411   1_455  A
C535        C536   1.402       .  A
C535        C542   1.511   1_655  S
C536        C537   1.410       .  A
C536        H541   1.084       .  S
C537        C538   1.419   1_545  A
C538        C539   1.514       .  S
C539        F543   1.385   1_655  S
C539        F544   1.384       .  S
C539        F545   1.382       .  S
C542        F546   1.383       .  S
C542        F547   1.384       .  S
C542        F548   1.382   1_455  S
C549        C550   1.403   1_565  A
C549        C554   1.406       .  A
C549        H556   1.084       .  S
C550        C551   1.413       .  A
C551        C552   1.406       .  A
C551        C558   1.511       .  S
C552        C553   1.406       .  A
C552        H557   1.083       .  S
C553        C554   1.417   1_545  A
C554        C555   1.504       .  S
C555        F559   1.381       .  S
C555        F560   1.385       .  S
C555        F561   1.380       .  S
C558        F562   1.382       .  S
C558        F563   1.384       .  S
C558        F564   1.382       .  S
C565        C566   1.403   1_565  A
C565        C570   1.401       .  A
C565        H572   1.084       .  S
C566        C567   1.413       .  A
C567        C568   1.401       .  A
C567        C574   1.519       .  S
C568        C569   1.410       .  A
C568        H573   1.084       .  S
C569        C570   1.416   1_545  A
C570        C571   1.514       .  S
C571        F575   1.383       .  S
C571        F576   1.385       .  S
C571        F577   1.383       .  S
C574        F578   1.381       .  S
C574        F579   1.382       .  S
C574        F580   1.381       .  S
C581        C582   1.403       .  A
C581        C586   1.406       .  A
C581        H588   1.084       .  S
C582        C583   1.416   1_545  A
C583        C584   1.402       .  A
C583        C590   1.514       .  S
C584        C585   1.402       .  A
C584        H589   1.084       .  S
C585        C586   1.416   1_565  A
C586        C587   1.511       .  S
C587        F591   1.383       .  S
C587        F592   1.380       .  S
C587        F593   1.385       .  S
C590        F594   1.377       .  S
C590        F595   1.383       .  S
C590        F596   1.380       .  S
C597        C598   1.407   1_556  A
C597        C602   1.403       .  A
C597        H604   1.085       .  S
C598        C599   1.413       .  A
C599        C600   1.397       .  A
C599        C606   1.501       .  S
C600        C601   1.397       .  A
C600        H605   1.085       .  S
C601        C602   1.416   1_554  A
C602        C603   1.513       .  S
C603        F607   1.384       .  S
C603        F608   1.382       .  S
C603        F609   1.383       .  S
C606        F610   1.379       .  S
C606        F611   1.382       .  S
C606        F612   1.383       .  S
C613        C614   1.401       .  A
C613        C618   1.403       .  A
C613        H620   1.084   1_545  S
C614        C615   1.418   1_554  A
C615        C616   1.402       .  A
C615        C622   1.523       .  S
C616        C617   1.403   1_556  A
C616        H621   1.082       .  S
C617        C618   1.415       .  A
C618        C619   1.512       .  S
C619        F623   1.383       .  S
C619        F624   1.384       .  S
C619        F625   1.383       .  S
C622        F626   1.381       .  S
C622        F627   1.382   1_545  S
C622        F628   1.381       .  S
C629        C630   1.398   1_556  A
C629        C634   1.397       .  A
C629        H636   1.084       .  S
C630        C631   1.410       .  A
C631        C632   1.404       .  A
C631        C638   1.513   1_565  S
C632        C633   1.408       .  A
C632        H637   1.083       .  S
C633        C634   1.419   1_554  A
C634        C635   1.512       .  S
C635        F639   1.384       .  S
C635        F640   1.383       .  S
C635        F641   1.384       .  S
C638        F642   1.383       .  S
C638        F643   1.383       .  S
C638        F644   1.381   1_545  S
C645        C646   1.404   1_556  A
C645        C650   1.410       .  A
C645        H652   1.083       .  S
C646        C647   1.418       .  A
C647        C648   1.400       .  A
C647        C654   1.509       .  S
C648        C649   1.398       .  A
C648        H653   1.084       .  S
C649        C650   1.415   1_554  A
C650        C651   1.511       .  S
C651        F655   1.381       .  S
C651        F656   1.383       .  S
C651        F657   1.382       .  S
C654        F658   1.380       .  S
C654        F659   1.384       .  S
C654        F660   1.383       .  S
C661        C662   1.405       .  A
C661        C666   1.403       .  A
C661        H668   1.084       .  S
C662        C663   1.418   1_655  A
C663        C664   1.410       .  A
C663        C670   1.512       .  S
C664        C665   1.407   1_455  A
C664        H669   1.083       .  S
C665        C666   1.401       .  A
C666        C667   1.496       .  S
C667        F671   1.375       .  S
C667        F672   1.385       .  S
C667        F673   1.378       .  S
C670        F674   1.379       .  S
C670        F675   1.382       .  S
C670        F676   1.381       .  S
C677        C678   1.394   1_554  A
C677        C682   1.408       .  A
C677        H684   1.084   1_554  S
C678        C679   1.417   1_656  A
C679        C680   1.414       .  A
C679        C686   1.519       .  S
C680        C681   1.410   1_455  A
C680        H685   1.082       .  S
C681        C682   1.436       .  A
C682        C683   1.520       .  S
C683        F687   1.383       .  S
C683        F688   1.386       .  S
C683        F689   1.380       .  S
C686        F690   1.383   1_554  S
C686        F691   1.384       .  S
C686        F692   1.382       .  S
C693        C694   1.404       .  A
C693        C698   1.399       .  A
C693        H700   1.084       .  S
C694        C695   1.417   1_655  A
C695        C696   1.401       .  A
C695        C702   1.515       .  S
C696        C697   1.411       .  A
C696        H701   1.083       .  S
C697        C698   1.413   1_455  A
C698        C699   1.511       .  S
C699        F703   1.379       .  S
C699        F704   1.380       .  S
C699        F705   1.376       .  S
C702        F706   1.380       .  S
C702        F707   1.382       .  S
C702        F708   1.382       .  S
C709        C710   1.407   1_655  A
C709        C714   1.407       .  A
C709        H716   1.085       .  S
C710        C711   1.419       .  A
C711        C712   1.408       .  A
C711        C718   1.521       .  S
C712        C713   1.409   1_454  A
C712        H717   1.083       .  S
C713        C714   1.420   1_556  A
C714        C715   1.520   1_554  S
C715        F719   1.383   1_556  S
C715        F720   1.378       .  S
C715        F721   1.383       .  S
C718        F722   1.384       .  S
C718        F723   1.382       .  S
C718        F724   1.385       .  S
C725        C726   1.401       .  A
C725        C730   1.401       .  A
C725        H732   1.084       .  S
C726        C727   1.416       .  A
C727        C728   1.402       .  A
C727        C734   1.509       .  S
C728        C729   1.406       .  A
C728        H733   1.084       .  S
C729        C730   1.415       .  A
C730        C731   1.510       .  S
C731        F735   1.383       .  S
C731        F736   1.383       .  S
C731        F737   1.384       .  S
C734        F738   1.382       .  S
C734        F739   1.383       .  S
C734        F740   1.383       .  S
C741        C742   1.398       .  A
C741        C746   1.398       .  A
C741        H748   1.084       .  S
C742        C743   1.411       .  A
C743        C744   1.405       .  A
C743        C750   1.509       .  S
C744        C745   1.405       .  A
C744        H749   1.083       .  S
C745        C746   1.416       .  A
C746        C747   1.508       .  S
C747        F751   1.383       .  S
C747        F752   1.383       .  S
C747        F753   1.383       .  S
C750        F754   1.381       .  S
C750        F755   1.382       .  S
C750        F756   1.383   1_554  S
C757        C758   1.408       .  A
C757        C762   1.406   1_556  A
C757        H764   1.083       .  S
C758        C759   1.416       .  A
C759        C760   1.401   1_556  A
C759        C766   1.507       .  S
C760        C761   1.399       .  A
C760        H765   1.084       .  S
C761        C762   1.416       .  A
C762        C763   1.517       .  S
C763        F767   1.384       .  S
C763        F768   1.383       .  S
C763        F769   1.383       .  S
C766        F770   1.383       .  S
C766        F771   1.377       .  S
C766        F772   1.383   1_556  S
C773        C774   1.397       .  A
C773        C778   1.402       .  A
C773        H780   1.085       .  S
C774        C775   1.415       .  A
C775        C776   1.406       .  A
C775        C782   1.514       .  S
C776        C777   1.410       .  A
C776        H781   1.083       .  S
C777        C778   1.410       .  A
C778        C779   1.496       .  S
C779        F783   1.379       .  S
C779        F784   1.383       .  S
C779        F785   1.379       .  S
C782        F786   1.383       .  S
C782        F787   1.384       .  S
C782        F788   1.383       .  S
C789        C790   1.404       .  A
C789        C794   1.404       .  A
C789        H796   1.085       .  S
C790        C791   1.413       .  A
C791        C792   1.384       .  A
C791        C798   1.519       .  S
C792        C793   1.404       .  A
C792        H797   1.082       .  S
C793        C794   1.414       .  A
C794        C795   1.515       .  S
C795        F799   1.384   1_455  S
C795        F800   1.383       .  S
C795        F801   1.384       .  S
C798        F802   1.384       .  S
C798        F803   1.374       .  S
C798        F804   1.381       .  S
C805        C806   1.398       .  A
C805        C810   1.406       .  A
C805        H812   1.085       .  S
C806        C807   1.400       .  A
C807        C808   1.402       .  A
C807        C814   1.512       .  S
C808        C809   1.409       .  A
C808        H813   1.078       .  S
C809        C810   1.435       .  A
C810        C811   1.519       .  S
C811        F815   1.384       .  S
C811        F816   1.376       .  S
C811        F817   1.381       .  S
C814        F818   1.379       .  S
C814        F819   1.381       .  S
C814        F820   1.383       .  S
C821        C822   1.415       .  A
C821        C826   1.404       .  A
C821        H828   1.072       .  S
C822        C823   1.416       .  A
C823        C824   1.399       .  A
C823        C830   1.519       .  S
C824        C825   1.406       .  A
C824        H829   1.081       .  S
C825        C826   1.414       .  A
C826        C827   1.524       .  S
C827        F831   1.384       .  S
C827        F832   1.382       .  S
C827        F833   1.382       .  S
C830        F834   1.382       .  S
C830        F835   1.384       .  S
C830        F836   1.383       .  S
C837        C838   1.415       .  A
C837        C842   1.414       .  A
C837        H844   1.084       .  S
C838        C839   1.399       .  A
C839        C840   1.397       .  A
C839        C846   1.514       .  S
C840        C841   1.415       .  A
C840        H845   1.075       .  S
C841        C842   1.420       .  A
C842        C843   1.518       .  S
C843        F847   1.382       .  S
C843        F848   1.382       .  S
C843        F849   1.380       .  S
C846        F850   1.380       .  S
C846        F851   1.381       .  S
C846        F852   1.381       .  S
C853        C854   1.407       .  A
C853        C858   1.407       .  A
C853        H860   1.083       .  S
C854        C855   1.413       .  A
C855        C856   1.404       .  A
C855        C862   1.509       .  S
C856        C857   1.401   1_545  A
C856        H861   1.083   1_545  S
C857        C858   1.419   1_565  A
C858        C859   1.517   1_545  S
C859        F863   1.383       .  S
C859        F864   1.383   1_565  S
C859        F865   1.384   1_565  S
C862        F866   1.384       .  S
C862        F867   1.380       .  S
C862        F868   1.383       .  S
C869        C870   1.405       .  A
C869        C874   1.400       .  A
C869        H876   1.085       .  S
C870        C871   1.418       .  A
C871        C872   1.398       .  A
C871        C878   1.511       .  S
C872        C873   1.399       .  A
C872        H877   1.085       .  S
C873        C874   1.409       .  A
C874        C875   1.508       .  S
C875        F879   1.382       .  S
C875        F880   1.381       .  S
C875        F881   1.381       .  S
C878        F882   1.384       .  S
C878        F883   1.384       .  S
C878        F884   1.382       .  S
C885        C886   1.402       .  A
C885        C890   1.401       .  A
C885        H892   1.084       .  S
C886        C887   1.413       .  A
C887        C888   1.405       .  A
C887        C894   1.514       .  S
C888        C889   1.406       .  A
C888        H893   1.083       .  S
C889        C890   1.415       .  A
C890        C891   1.510       .  S
C891        F895   1.383   1_565  S
C891        F896   1.382       .  S
C891        F897   1.385       .  S
C894        F898   1.382       .  S
C894        F899   1.382       .  S
C894        F900   1.382   1_565  S
C901        C902   1.401       .  A
C901        C906   1.401       .  A
C901        H908   1.083       .  S
C902        C903   1.414       .  A
C903        C904   1.402       .  A
C903        C910   1.508       .  S
C904        C905   1.401       .  A
C904        H909   1.084       .  S
C905        C906   1.418       .  A
C906        C907   1.515       .  S
C907        F911   1.380       .  S
C907        F912   1.383       .  S
C907        F913   1.385       .  S
C910        F914   1.382       .  S
C910        F915   1.381       .  S
C910        F916   1.382       .  S
