geometry optimzed in LAMMPS
_audit_creation_date              2020-11-30 
_audit_creation_method            'lammps2cif' 
_symmetry_space_group_name_H-M    'P1' 
_symmetry_Int_Tables_number       1 
_symmetry_cell_setting            triclinic 
loop_ 
_symmetry_equiv_pos_as_xyz 
  x,y,z 
_cell_length_a                    25.45794847 
_cell_length_b                    25.413856667483564 
_cell_length_c                    25.435196077283322 
_cell_angle_alpha                 90.07167855071769 
_cell_angle_beta                  90.47329402195471 
_cell_angle_gamma                 88.96823592575436 
loop_ 
_atom_site_label 
_atom_site_type_symbol 
_atom_site_fract_x 
_atom_site_fract_y 
_atom_site_fract_z 
_atom_site_charge 
N1          N  0.48976875  0.05032354  0.43616677    -0.34700
N2          N  0.50375755  0.94000467  0.45839432    -0.55300
N3          N  0.51968589  0.96386494  0.56784448    -0.34700
N4          N  0.50186395  0.07434453  0.54588340    -0.55300
C5          C  0.47575625  0.02936288  0.38950274     0.28800
C6          C  0.46991683  0.09985363  0.43776555     0.28800
C7          C  0.50823948  0.91236451  0.57017759     0.28800
C8          C  0.51202128  0.98376115  0.61638061     0.28800
C9          C  0.51008758  0.93903592  0.40590445     0.37500
C10         C  0.51870052  0.89195387  0.47611909     0.37500
C11         C  0.50318246  0.12336679  0.52600175     0.37500
C12         C  0.52311407  0.07705419  0.59435712     0.37500
C13         C  0.44652339  0.06586935  0.36066418    -0.20000
C14         C  0.44266052  0.11051493  0.39129292    -0.20000
C15         C  0.49369461  0.89973646  0.62109401    -0.20000
C16         C  0.49638369  0.94480236  0.65034854    -0.20000
C17         C  0.52949486  0.88995142  0.39059243    -0.21100
C18         C  0.53419030  0.85984872  0.43508367    -0.21100
C19         C  0.52513483  0.15774477  0.56187661    -0.21100
C20         C  0.53804251  0.12820435  0.60534318    -0.21100
C21         C  0.49219376  0.97940854  0.37170311    -0.16400
C22         C  0.48234032  0.13721785  0.47679551    -0.16400
C23         C  0.52104360  0.03577430  0.63086669    -0.16400
C24         C  0.51475247  0.87626096  0.52856345    -0.16400
H25         H  0.43052374  0.06115425  0.32141279     0.16500
H26         H  0.42331729  0.14709248  0.38000354     0.16500
H27         H  0.48220970  0.86234217  0.63626093     0.16500
H28         H  0.48775090  0.94844997  0.69180995     0.16500
H29         H  0.53892827  0.87664888  0.35162784     0.14800
H30         H  0.54746563  0.81918911  0.43705423     0.14800
H31         H  0.53079893  0.19960466  0.55736173     0.14800
H32         H  0.55562799  0.14291825  0.64107164     0.14800
H33         H  0.51775138  0.03429634  0.46188120     0.28000
H34         H  0.53728335  0.98322839  0.53663812     0.28000
N35         N  0.96072018  0.56088917  0.50181330    -0.34700
N36         N  0.94075500  0.45117855  0.51516364    -0.55300
N37         N  0.05253210  0.43052706  0.53205647    -0.34700
N38         N  0.07159575  0.54060045  0.51580511    -0.55300
C39         C  0.91165756  0.55778300  0.48187388     0.28800
C40         C  0.98044141  0.60674748  0.48524893     0.28800
C41         C  0.03428441  0.38141623  0.52520574     0.28800
C42         C  0.10432104  0.42901356  0.52094270     0.28800
C43         C  0.89119940  0.47077655  0.51781032     0.37500
C44         C  0.94013503  0.40317985  0.53740017     0.37500
C45         C  0.07088385  0.59347025  0.51958916     0.37500
C46         C  0.12045573  0.52431379  0.52975356     0.37500
C47         C  0.90008981  0.60240410  0.45214783    -0.20000
C48         C  0.94363007  0.63351080  0.45449038    -0.20000
C49         C  0.07493258  0.34770107  0.51064399    -0.20000
C50         C  0.11923134  0.37777873  0.50780699    -0.20000
C51         C  0.85862207  0.43532051  0.54184663    -0.25100
C52         C  0.88978282  0.39242413  0.55458132    -0.21100
C53         C  0.11959229  0.61067313  0.53680450    -0.21100
C54         C  0.15121355  0.56676930  0.54268033    -0.21100
C55         C  0.87542407  0.51911745  0.49574016    -0.16400
C56         C  0.02958328  0.62595679  0.50019852    -0.16400
C57         C  0.13849338  0.47210690  0.52550436    -0.16400
C58         C  0.98226417  0.36657819  0.53434159    -0.16400
H59         H  0.86372303  0.61214910  0.43182363     0.16500
H60         H  0.94749325  0.67169267  0.43625617     0.16500
H61         H  0.07293045  0.30586677  0.50303306     0.16500
H62         H  0.15783892  0.36316559  0.49746138     0.16500
H63         H  0.81693192  0.43975890  0.54903451     0.14800
H64         H  0.87665678  0.35720427  0.57371722     0.14800
H65         H  0.13181851  0.65058502  0.54301737     0.14800
H66         H  0.19224939  0.56617641  0.55420494     0.14800
H67         H  0.97720450  0.53680758  0.53102516     0.28000
H68         H  0.03163850  0.46198560  0.54851011     0.28000
N69         N  0.53758334  0.49733908  0.93311048    -0.34700
N70         N  0.42822584  0.50332180  0.95446484    -0.55300
N71         N  0.44915818  0.48421419  0.06538143    -0.34700
N72         N  0.55921798  0.47989424  0.04336526    -0.55300
C73         C  0.51872115  0.51687069  0.88722109     0.28800
C74         C  0.58845498  0.51070329  0.93674362     0.28800
C75         C  0.40045155  0.50591838  0.06656091     0.28800
C76         C  0.46990629  0.48864117  0.11424195     0.28800
C77         C  0.42577383  0.49743028  0.90189195     0.37500
C78         C  0.37902319  0.49708100  0.97209108     0.37500
C79         C  0.60754010  0.47129922  0.02369176     0.37500
C80         C  0.55989608  0.45974549  0.09225273     0.37500
C81         C  0.55783228  0.54295762  0.86097186    -0.20000
C82         C  0.60193219  0.53950168  0.89255543    -0.20000
C83         C  0.38993409  0.52370424  0.11717463    -0.20000
C84         C  0.43380429  0.51253317  0.14735831    -0.20000
C85         C  0.37461782  0.48678588  0.88641827    -0.21100
C86         C  0.34484819  0.48706424  0.93096752    -0.21100
C87         C  0.63933586  0.44503806  0.05983999    -0.21100
C88         C  0.60897663  0.43751695  0.10347908    -0.21100
C89         C  0.46765900  0.50887697  0.86815319    -0.16400
C90         C  0.62385210  0.49177568  0.97559610    -0.16400
C91         C  0.52028387  0.47041835  0.12915793    -0.16400
C92         C  0.36431244  0.50585344  0.02412874    -0.16400
H93         H  0.55488437  0.56230125  0.82314634     0.16500
H94         H  0.63972423  0.55571180  0.88352479     0.16500
H95         H  0.35461791  0.54295275  0.13117350     0.16500
H96         H  0.43866046  0.52127402  0.18875473     0.16500
H97         H  0.35945176  0.48110293  0.84737540     0.14800
H98         H  0.30283038  0.48159636  0.93279680     0.14800
H99         H  0.68035016  0.43394101  0.05576228     0.14800
H100        H  0.62214226  0.41961082  0.13993705     0.14800
H101        H  0.51873186  0.47035038  0.95693578     0.28000
H102        H  0.46536479  0.46280864  0.03433761     0.28000
N103        N  0.99971750  0.46855985  0.06812060    -0.34700
N104        N  0.00418118  0.57726162  0.03817907    -0.55300
N105        N  0.99220427  0.54692512  0.92873177    -0.34700
N106        N  0.99110813  0.43820287  0.95885727    -0.55300
C107        C  0.01378144  0.49090016  0.11420752     0.28800
C108        C  0.01409019  0.41723218  0.07072735     0.28800
C109        C  0.01025029  0.59626608  0.92388837     0.28800
C110        C  0.99792110  0.52306562  0.88155671     0.28800
C111        C  0.99592527  0.58371282  0.09010086     0.37500
C112        C  0.99828906  0.62529041  0.01619466     0.37500
C113        C  0.98395562  0.39115041  0.98182946     0.37500
C114        C  0.97329157  0.43377817  0.90908049     0.37500
C115        C  0.03702059  0.45359324  0.14689598    -0.20000
C116        C  0.03772991  0.40705489  0.11923665    -0.20000
C117        C  0.02753892  0.60383013  0.87277574    -0.20000
C118        C  0.01958222  0.55752615  0.84599326    -0.20000
C119        C  0.98511124  0.63638579  0.10103564    -0.21100
C120        C  0.98701808  0.66277244  0.05413152    -0.21100
C121        C  0.96152978  0.35632400  0.94674315    -0.21100
C122        C  0.95427480  0.38354570  0.90062307    -0.21100
C123        C  0.00359737  0.54358564  0.12784731    -0.16400
C124        C  0.00111486  0.37876946  0.03286050    -0.16400
C125        C  0.98158741  0.47180038  0.86987076    -0.16400
C126        C  0.00620422  0.63581760  0.96279074    -0.16400
H127        H  0.05192739  0.45935495  0.18642621     0.16500
H128        H  0.05312809  0.36987911  0.13373890     0.16500
H129        H  0.04358989  0.63918091  0.85618603     0.16500
H130        H  0.02835294  0.55020775  0.80503216     0.16500
H131        H  0.97765598  0.65445502  0.13872960     0.14800
H132        H  0.98123515  0.70471552  0.04864096     0.14800
H133        H  0.95194324  0.31557958  0.95352467     0.14800
H134        H  0.93794915  0.36768093  0.86480615     0.14800
H135        H  0.97562466  0.48593544  0.03962250     0.28000
H136        H  0.97114860  0.53252037  0.96029921     0.28000
N137        N  0.54294854  0.92018898  0.98934658    -0.34700
N138        N  0.43332528  0.95206731  0.99489819    -0.55300
N139        N  0.46398981  0.06014087  0.00187334    -0.34700
N140        N  0.57248765  0.02913261  0.99863467    -0.55300
C141        C  0.51991166  0.87366238  0.99883237     0.28800
C142        C  0.59401425  0.91495019  0.00354390     0.28800
C143        C  0.41361868  0.06292784  0.01761224     0.28800
C144        C  0.48691310  0.10497147  0.01770241     0.28800
C145        C  0.42887378  0.90226882  0.97768719     0.37500
C146        C  0.38645367  0.97606204  0.98578170     0.37500
C147        C  0.62001449  0.00722420  0.98892336     0.37500
C148        C  0.57753506  0.08139211  0.99213357     0.37500
C149        C  0.55673104  0.83795845  0.01858602    -0.20000
C150        C  0.60364283  0.86403734  0.02160108    -0.20000
C151        C  0.40472909  0.10986946  0.04440456    -0.20000
C152        C  0.45105601  0.13671268  0.04404156    -0.20000
C153        C  0.37870023  0.89470347  0.95738538    -0.21100
C154        C  0.35168768  0.94164650  0.96272592    -0.21100
C155        C  0.65569035  0.04548213  0.97612690    -0.21100
C156        C  0.62866333  0.09258562  0.97789902    -0.21100
C157        C  0.46716309  0.86258167  0.98706695    -0.16400
C158        C  0.63239438  0.95394653  0.99714512    -0.16400
C159        C  0.53835560  0.11882631  0.00547997    -0.16400
C160        C  0.37460248  0.02761247  0.00171914    -0.16400
H161        H  0.55053333  0.79735563  0.02933016     0.16500
H162        H  0.64055403  0.84719453  0.03534078     0.16500
H163        H  0.36858312  0.12374726  0.06185727     0.16500
H164        H  0.45748416  0.17527501  0.06076455     0.16500
H165        H  0.36293048  0.85916342  0.94080184     0.14800
H166        H  0.31115959  0.94937999  0.95157524     0.14800
H167        H  0.69705475  0.04012702  0.96771157     0.14800
H168        H  0.64543766  0.13056315  0.97105562     0.14800
H169        H  0.52602745  0.95172371  0.96904865     0.28000
H170        H  0.47958196  0.03308522  0.97530195     0.28000
O171        O  0.86355881  0.71746029  0.79389263    -0.76600
C172        C  0.74105094  0.75696205  0.89982866     0.84400
O173        O  0.71691845  0.60340332  0.74249286    -0.77700
O174        O  0.61520974  0.77568617  0.76508869    -0.79200
O175        O  0.77196839  0.85331297  0.70550057    -0.79000
O176        O  0.87467787  0.76822642  0.72404334    -0.77600
Zn177      Zn  0.78831890  0.69925583  0.80543878     1.55700
O178        O  0.71124402  0.86700004  0.76722859    -0.79000
Cd179      Cd  0.79295375  0.77386790  0.70166727     1.59700
Cd180      Cd  0.70291898  0.68142237  0.71578779     1.59600
O181        O  0.77861973  0.74814789  0.62273248    -0.79000
O182        O  0.74513836  0.73619309  0.75332512    -1.89500
Cd183      Cd  0.69475952  0.78790918  0.78904536     1.59900
O184        O  0.72038331  0.68502845  0.63672039    -0.79000
O185        O  0.70736866  0.78109995  0.87027238    -0.77600
C186        C  0.74950175  0.58811655  0.77797550     0.84900
C187        C  0.89333557  0.74454913  0.76471112     0.84500
O188        O  0.77341466  0.72304747  0.88127198    -0.76600
C189        C  0.74142207  0.88425478  0.73136629     0.85400
O190        O  0.77895656  0.62078591  0.80168032    -0.76700
C191        C  0.74859849  0.71180821  0.60565328     0.85500
C192        C  0.59564732  0.74009845  0.73545294     0.85800
O193        O  0.62347446  0.70129398  0.71872053    -0.79100
O194        O  0.11343134  0.78255414  0.72345595    -0.76600
C195        C  0.22688587  0.90757814  0.73512525     0.84400
O196        O  0.25746462  0.73444767  0.59780811    -0.77700
O197        O  0.37418758  0.79526564  0.74773038    -0.79200
O198        O  0.23467698  0.72533776  0.86111985    -0.79000
O199        O  0.13086501  0.71662733  0.77902957    -0.77600
Zn200      Zn  0.18783379  0.79877979  0.69628341     1.55700
O201        O  0.28847161  0.79310242  0.85022156    -0.79000
Cd202      Cd  0.21242294  0.70755654  0.78243996     1.59700
Cd203      Cd  0.28318656  0.71933575  0.67607942     1.59600
O204        O  0.23856368  0.62884220  0.76660877    -0.79000
O205        O  0.24408561  0.75974633  0.73185613    -1.89500
Cd206      Cd  0.29365938  0.81061433  0.76990894     1.59900
O207        O  0.28284584  0.63916970  0.69197350    -0.79000
O208        O  0.26879184  0.89190764  0.75920503    -0.77600
C209        C  0.21762016  0.76245798  0.58386244     0.84900
C210        C  0.09839552  0.74931094  0.75746398     0.84500
O211        O  0.19789706  0.87473620  0.71123122    -0.76600
C212        C  0.26575081  0.75979586  0.87986141     0.85400
O213        O  0.19039868  0.78758361  0.61790422    -0.76700
C214        C  0.26726721  0.61022624  0.72956446     0.85500
C215        C  0.39206405  0.76425186  0.71192390     0.85800
O216        O  0.36134983  0.73669021  0.68366169    -0.79100
O217        O  0.72471693  0.10852936  0.77904648    -0.76600
C218        C  0.73932613  0.23192755  0.91600307     0.84400
O219        O  0.63084829  0.26494180  0.72383908    -0.77700
O220        O  0.77797510  0.35231634  0.80801503    -0.79200
O221        O  0.89008079  0.21855968  0.74141061    -0.79000
O222        O  0.79784821  0.11326858  0.73174031    -0.77600
Zn223      Zn  0.71527383  0.18643113  0.80525607     1.55700
O224        O  0.87702999  0.27206285  0.80975902    -0.79000
Cd225      Cd  0.81188070  0.19361584  0.72796935     1.59700
Cd226      Cd  0.71318010  0.28462742  0.71640160     1.59600
O227        O  0.80228288  0.21123938  0.65008765    -0.79000
O228        O  0.75745889  0.23565291  0.76663710    -1.89500
Cd229      Cd  0.79699564  0.27545362  0.82133329     1.59900
O230        O  0.74184559  0.27472806  0.63649656    -0.79000
O231        O  0.77393558  0.26364128  0.89998842    -0.77600
C232        C  0.61145542  0.23185768  0.75626862     0.84900
C233        C  0.75871810  0.08732531  0.74838603     0.84500
O234        O  0.71887708  0.19847195  0.88456890    -0.76600
C235        C  0.90661212  0.25302109  0.77392130     0.85400
O236        O  0.64113910  0.20533712  0.78737127    -0.76700
C237        C  0.77819703  0.24334295  0.61950046     0.85500
C238        C  0.74972098  0.38281613  0.77938036     0.85800
O239        O  0.72237986  0.36528378  0.74072702    -0.79100
O240        O  0.28773477  0.23995223  0.61928477    -0.76600
C241        C  0.40417137  0.23199942  0.74794105     0.84400
O242        O  0.20988020  0.14210310  0.77395512    -0.77700
O243        O  0.29726871  0.27429385  0.87786130    -0.79200
O244        O  0.24284480  0.39026914  0.72209400    -0.79000
O245        O  0.22496804  0.30127973  0.62961513    -0.77600
Zn246      Zn  0.29304448  0.20963573  0.69709636     1.55700
O247        O  0.30743673  0.37508435  0.78042598    -0.79000
Cd248      Cd  0.21624051  0.31302278  0.70890503     1.59700
Cd249      Cd  0.20564570  0.22051861  0.79167947     1.59600
O250        O  0.13696055  0.30872171  0.72460484    -0.79000
O251        O  0.25825272  0.25837370  0.74803708    -1.89500
Cd252      Cd  0.31098394  0.29405682  0.79686226     1.59900
O253        O  0.12613921  0.24287213  0.78057321    -0.79000
O254        O  0.38907474  0.26818007  0.77968537    -0.77600
C255        C  0.23069454  0.11339412  0.73845830     0.84900
C256        C  0.25811269  0.27697864  0.60065160     0.84500
O257        O  0.37123665  0.20886663  0.71761066    -0.76600
C258        C  0.28116758  0.40643769  0.75011648     0.85400
O259        O  0.26263532  0.13243440  0.70476619    -0.76700
C260        C  0.10722386  0.28011750  0.75232963     0.85500
C261        C  0.26201421  0.24503805  0.89787464     0.85800
O262        O  0.22523291  0.22585621  0.86993060    -0.79100
O263        O  0.76701762  0.71921229  0.12599763    -0.76600
C264        C  0.87991153  0.72822901  0.25577960     0.84400
O265        O  0.67928847  0.63213991  0.27458950    -0.77700
O266        O  0.76822224  0.75677909  0.38273776    -0.79200
O267        O  0.72270597  0.87763773  0.22259206    -0.79000
O268        O  0.71075276  0.78703310  0.13188298    -0.77600
Zn269      Zn  0.77131750  0.69637580  0.20638175     1.55700
O270        O  0.77407721  0.86510788  0.29332969    -0.79000
Cd271      Cd  0.69534570  0.80117759  0.20925214     1.59700
Cd272      Cd  0.67522214  0.71110413  0.29377653     1.59600
O273        O  0.61537955  0.80170109  0.21910508    -0.79000
O274        O  0.73222936  0.74668168  0.25304620    -1.89500
Cd275      Cd  0.78173188  0.78315022  0.30420098     1.59900
O276        O  0.59728985  0.74144635  0.27937203    -0.79000
O277        O  0.86187048  0.76370396  0.28685579    -0.77600
C278        C  0.70889460  0.60113725  0.24793932     0.84900
C279        C  0.74154146  0.75785338  0.10485060     0.84500
O280        O  0.84898293  0.70154533  0.22650158    -0.76600
C281        C  0.75425229  0.89509685  0.25739036     0.85400
O282        O  0.74678201  0.61858553  0.22024912    -0.76700
C283        C  0.58248229  0.77826314  0.24795198     0.85500
C284        C  0.73287521  0.72708897  0.40182329     0.85800
O285        O  0.69446586  0.71090752  0.37377786    -0.79100
O286        O  0.27200747  0.81057800  0.11521786    -0.76600
C287        C  0.22878523  0.92137847  0.25252527     0.84400
O288        O  0.35952852  0.74610829  0.27330083    -0.77700
O289        O  0.19138123  0.79395343  0.35038559    -0.79200
O290        O  0.11094273  0.73463291  0.19481045    -0.79000
O291        O  0.21381945  0.74798463  0.09917571    -0.77600
Zn292      Zn  0.27322413  0.82503136  0.19430474     1.55700
O293        O  0.09916855  0.78900117  0.26263405    -0.79000
Cd294      Cd  0.19132892  0.73332053  0.17819868     1.59700
Cd295      Cd  0.27872470  0.72344306  0.27912814     1.59600
O296        O  0.21281186  0.65587546  0.18916961    -0.79000
O297        O  0.23216274  0.77322615  0.23187086    -1.89500
Cd298      Cd  0.17817214  0.81314750  0.27319384     1.59900
O299        O  0.27111199  0.64264814  0.25393385    -0.79000
O300        O  0.19131660  0.89332855  0.26965609    -0.77600
C301        C  0.37745861  0.78356512  0.24529168     0.84900
C302        C  0.25037632  0.77798338  0.08361882     0.84500
O303        O  0.26195983  0.90278301  0.21960493    -0.76600
C304        C  0.08187188  0.75396468  0.23121862     0.85400
O305        O  0.34727493  0.81115508  0.21571326    -0.76700
C306        C  0.24256728  0.62509855  0.21617199     0.85500
C307        C  0.21788315  0.76164571  0.37877149     0.85800
O308        O  0.25350690  0.73116636  0.35929020    -0.79100
O309        O  0.62911950  0.21559433  0.25438097    -0.76600
C310        C  0.73088870  0.24948389  0.11989783     0.84400
O311        O  0.80462471  0.12882823  0.28192098    -0.77700
O312        O  0.87144837  0.29139001  0.21512346    -0.79200
O313        O  0.72090120  0.37009690  0.30469413    -0.79000
O314        O  0.64233646  0.27258360  0.31962700    -0.77600
Zn315      Zn  0.70704025  0.20056653  0.23005253     1.55700
O316        O  0.76266163  0.37845572  0.22823295    -0.79000
Cd317      Cd  0.72141274  0.28994772  0.32247947     1.59700
Cd318      Cd  0.81665849  0.20742377  0.29959673     1.59600
O319        O  0.75106240  0.27497888  0.39948602    -0.79000
O320        O  0.75788712  0.24875907  0.26532721    -1.89500
Cd321      Cd  0.78944729  0.30007617  0.21324530     1.59900
O322        O  0.81661475  0.21878073  0.38098026    -0.79000
O323        O  0.76517892  0.28247681  0.13503979    -0.77600
C324        C  0.77190024  0.10009394  0.25703884     0.84900
C325        C  0.61138940  0.24538895  0.29113672     0.84500
O326        O  0.70888487  0.21884312  0.15260253    -0.76600
C327        C  0.73469681  0.39785576  0.26541484     0.85400
O328        O  0.72998545  0.12026847  0.23652292    -0.76700
C329        C  0.78992316  0.24584857  0.41420627     0.85500
C330        C  0.90543360  0.25976723  0.23607099     0.85800
O331        O  0.89209520  0.22570308  0.27015530    -0.79100
N332        N  0.05300518  0.98744586  0.53820961    -0.34700
N333        N  0.94378487  0.98895631  0.56721172    -0.55300
N334        N  0.91349250  0.97165052  0.45924228    -0.34700
N335        N  0.02352837  0.96857874  0.43172543    -0.55300
C336        C  0.05355999  0.01256032  0.58488901     0.28800
C337        C  0.09690573  0.00144275  0.51271741     0.28800
C338        C  0.86747492  0.98819519  0.48042548     0.28800
C339        C  0.91112918  0.98195100  0.40715588     0.28800
C340        C  0.96633204  0.98734339  0.61537720     0.37500
C341        C  0.89305756  0.97666084  0.57363794     0.37500
C342        C  0.07575458  0.96063978  0.42770150     0.37500
C343        C  0.00242895  0.95511451  0.38509923     0.37500
C344        C  0.09832115  0.04270437  0.58914536    -0.20000
C345        C  0.12580377  0.03560254  0.54342429    -0.20000
C346        C  0.83479834  0.00845562  0.44137015    -0.20000
C347        C  0.86244472  0.00477304  0.39505015    -0.20000
C348        C  0.93025666  0.97330638  0.65289305    -0.21100
C349        C  0.88366976  0.96623230  0.62638053    -0.21100
C350        C  0.08781482  0.93989867  0.37866617    -0.21100
C351        C  0.04113166  0.93660292  0.35145461    -0.21100
C352        C  0.01746462  0.00428373  0.62538769    -0.16400
C353        C  0.11193232  0.98251914  0.46321297    -0.16400
C354        C  0.95081775  0.96859694  0.37042129    -0.16400
C355        C  0.85449397  0.98344608  0.53396037    -0.16400
H356        H  0.11005053  0.06723267  0.62178559     0.16500
H357        H  0.16281402  0.05345048  0.53392713     0.16500
H358        H  0.79541819  0.02451614  0.44584196     0.16500
H359        H  0.84808549  0.01747387  0.35696483     0.16500
H360        H  0.93644905  0.97016324  0.69492981     0.14800
H361        H  0.84701123  0.95608646  0.64439563     0.14800
H362        H  0.12633023  0.93133968  0.36294733     0.14800
H363        H  0.03656493  0.92496685  0.31073516     0.14800
H364        H  0.02736363  0.95780284  0.52711846     0.28000
H365        H  0.94285377  0.94993690  0.47859219     0.28000
C366        C  0.24884931  0.06736017  0.29446526     0.05000
C367        C  0.24917209  0.02227213  0.26052164    -0.11200
C368        C  0.23800145  0.97170465  0.28173660     0.02500
C369        C  0.23094872  0.96720215  0.33609648    -0.09700
C370        C  0.22786536  0.01090914  0.36829625     0.05000
C371        C  0.23749996  0.06042991  0.34811673    -0.09100
H372        H  0.25464767  0.02694647  0.21864876     0.10600
H373        H  0.22279919  0.92912211  0.35328010     0.08100
H374        H  0.23333268  0.09416684  0.37402940     0.08000
O375        O  0.22708156  0.38270688  0.19386003    -0.76600
C376        C  0.27064279  0.23939093  0.10283235     0.84400
O377        O  0.12697863  0.24543257  0.27665154    -0.77700
O378        O  0.28697267  0.13728279  0.24293940    -0.79200
O379        O  0.38154544  0.30886006  0.27637258    -0.79000
O380        O  0.28364569  0.40517692  0.25647572    -0.77600
Zn381      Zn  0.21940160  0.30358720  0.19144719     1.55700
O382        O  0.38674784  0.22751919  0.24265749    -0.79000
Cd383      Cd  0.30132869  0.32686133  0.28312108     1.59700
Cd384      Cd  0.20832225  0.23753083  0.30095040     1.59600
O385        O  0.28744858  0.32205581  0.36336996    -0.79000
O386        O  0.25892131  0.27015310  0.24814081    -1.89500
Cd387      Cd  0.30809787  0.21409432  0.21790773     1.59900
O388        O  0.22555108  0.26309921  0.37956327    -0.79000
O389        O  0.29995730  0.21484136  0.13622324    -0.77600
C390        C  0.11140742  0.26361264  0.23207609     0.84900
C391        C  0.25253457  0.41796864  0.21869963     0.84500
O392        O  0.23913406  0.27622104  0.11719184    -0.76600
C393        C  0.40796515  0.26700906  0.26529400     0.85400
O394        O  0.14396189  0.28534623  0.20136702    -0.76700
C395        C  0.25897048  0.29684849  0.39565475     0.85500
C396        C  0.25310055  0.12329780  0.27686021     0.85800
O397        O  0.22352390  0.15712334  0.30002226    -0.79100
C398        C  0.05647280  0.25739028  0.21033907     0.05000
C399        C  0.00861330  0.25546295  0.23954451    -0.11200
C400        C  0.95908526  0.25815536  0.21220028     0.02500
C401        C  0.95888841  0.26203106  0.15719718    -0.09700
C402        C  0.00507592  0.26315925  0.12908668     0.05000
C403        C  0.05293238  0.25846299  0.15499232    -0.09100
H404        H  0.00977194  0.25475616  0.28207724     0.10600
H405        H  0.92208482  0.26711318  0.13577047     0.08100
H406        H  0.08804989  0.26075641  0.13128137     0.08000
C407        C  0.26803818  0.22128282  0.95119025     0.05000
C408        C  0.26693735  0.24798222  0.00060303    -0.11200
C409        C  0.26900304  0.21794611  0.04811132     0.02500
C410        C  0.26986840  0.16279895  0.04477770    -0.09700
C411        C  0.27218404  0.13715780  0.99669294     0.05000
C412        C  0.27174849  0.16608884  0.95057260    -0.09100
H413        H  0.26458383  0.29052353  0.00205742     0.10600
H414        H  0.27164393  0.13921293  0.08032699     0.08100
H415        H  0.27549858  0.14526055  0.91343573     0.08000
C416        C  0.55469424  0.24681908  0.30653704     0.05000
C417        C  0.54594516  0.24431089  0.36084664    -0.11200
C418        C  0.49573347  0.24887456  0.38132737     0.02500
C419        C  0.45309201  0.25790233  0.34836715    -0.09700
C420        C  0.45896115  0.25992060  0.29377605     0.05000
C421        C  0.51033689  0.25348888  0.27197653    -0.09100
H422        H  0.57852363  0.23587131  0.38752665     0.10600
H423        H  0.41403763  0.25943600  0.36531591     0.08100
H424        H  0.51578204  0.25532003  0.22986945     0.08000
C425        C  0.78879214  0.04357105  0.24857640     0.05000
C426        C  0.75605704  0.99825706  0.25016592    -0.11200
C427        C  0.77992802  0.94672999  0.24936543     0.02500
C428        C  0.83448959  0.94184915  0.24528705    -0.09700
C429        C  0.86599610  0.98537819  0.24705022     0.05000
C430        C  0.84357698  0.03544510  0.24525623    -0.09100
H431        H  0.71404089  0.00288071  0.25506965     0.10600
H432        H  0.85330982  0.90316306  0.24755464     0.08100
H433        H  0.86983385  0.06854992  0.24747658     0.08000
C434        C  0.71393088  0.23905885  0.96852416     0.05000
C435        C  0.65898687  0.23555775  0.96767721    -0.11200
C436        C  0.63006496  0.23659484  0.01359913     0.02500
C437        C  0.65482743  0.24489370  0.06142057    -0.09700
C438        C  0.70959872  0.24941821  0.06500131     0.05000
C439        C  0.73983008  0.24748762  0.01782615    -0.09100
H440        H  0.63847631  0.22760452  0.93099750     0.10600
H441        H  0.63137860  0.24354556  0.09684166     0.08100
H442        H  0.78224147  0.24937674  0.01976527     0.08000
C443        C  0.69324699  0.54469798  0.24681936     0.05000
C444        C  0.72737479  0.50002804  0.25462592    -0.11200
C445        C  0.70557172  0.44872163  0.25762187     0.02500
C446        C  0.65117465  0.44321356  0.25111273    -0.09700
C447        C  0.61848252  0.48645573  0.24148756     0.05000
C448        C  0.63918688  0.53658628  0.24022408    -0.09100
H449        H  0.76920658  0.50517292  0.25984364     0.10600
H450        H  0.63442551  0.40420883  0.25019164     0.08100
H451        H  0.61302943  0.56968784  0.23145359     0.08000
C452        C  0.80993888  0.24703567  0.46968201     0.05000
C453        C  0.86480112  0.24992760  0.47507582    -0.11200
C454        C  0.88851473  0.25342221  0.52421210     0.02500
C455        C  0.85821629  0.25155165  0.56909501    -0.09700
C456        C  0.80320180  0.24847857  0.56661059     0.05000
C457        C  0.77832513  0.24737095  0.51608431    -0.09100
H458        H  0.88913696  0.25351787  0.44046716     0.10600
H459        H  0.87780455  0.25583579  0.60693991     0.08100
H460        H  0.73601925  0.24500087  0.51292081     0.08000
C461        C  0.24714687  0.57002163  0.19505782     0.05000
C462        C  0.24712146  0.56765648  0.13984335    -0.11200
C463        C  0.24896007  0.52023014  0.11331445     0.02500
C464        C  0.24857091  0.47348390  0.14094945    -0.09700
C465        C  0.24986141  0.47250293  0.19607323     0.05000
C466        C  0.25021732  0.52164001  0.22400378    -0.09100
H467        H  0.24969071  0.60350812  0.11686647     0.10600
H468        H  0.25249148  0.43705710  0.11882725     0.08100
H469        H  0.25110610  0.52215561  0.26653946     0.08000
C470        C  0.03230125  0.72501964  0.24274052     0.05000
C471        C  0.98068531  0.74673439  0.25100799    -0.11200
C472        C  0.93698463  0.71215455  0.25585359     0.02500
C473        C  0.94646507  0.65756326  0.25376832    -0.09700
C474        C  0.99651009  0.63686529  0.24551804     0.05000
C475        C  0.03886846  0.67008215  0.24212986    -0.09100
H476        H  0.97424488  0.78894378  0.25037972     0.10600
H477        H  0.91376787  0.63073753  0.25395607     0.08100
H478        H  0.07724117  0.65260226  0.23417753     0.08000
C479        C  0.28418910  0.75692506  0.93570650     0.05000
C480        C  0.25238500  0.76334131  0.98151658    -0.11200
C481        C  0.27707207  0.76861917  0.03193417     0.02500
C482        C  0.33224394  0.76586281  0.03498167    -0.09700
C483        C  0.36279784  0.75882380  0.99045177     0.05000
C484        C  0.33888486  0.75313714  0.94166077    -0.09100
H485        H  0.21009680  0.76697125  0.97772874     0.10600
H486        H  0.35209898  0.77197629  0.07236655     0.08100
H487        H  0.36357362  0.75057502  0.90709535     0.08000
C488        C  0.43169859  0.80409210  0.25134965     0.05000
C489        C  0.47995300  0.77466079  0.24945776    -0.11200
C490        C  0.52845601  0.80211015  0.24917242     0.02500
C491        C  0.52722023  0.85739500  0.25108179    -0.09700
C492        C  0.48043259  0.88538023  0.25701641     0.05000
C493        C  0.43339068  0.85907123  0.25669831    -0.09100
H494        H  0.47974821  0.73218805  0.24638165     0.10600
H495        H  0.56367218  0.87884830  0.25352283     0.08100
H496        H  0.39737705  0.88176040  0.26278113     0.08000
C497        C  0.19681109  0.75458712  0.43267122     0.05000
C498        C  0.14259727  0.74559659  0.43347352    -0.11200
C499        C  0.11517382  0.74527241  0.48015356     0.02500
C500        C  0.14090753  0.75495908  0.52716280    -0.09700
C501        C  0.19558884  0.76034765  0.52937785     0.05000
C502        C  0.22446045  0.76008458  0.48138691    -0.09100
H503        H  0.12164716  0.73702996  0.39716493     0.10600
H504        H  0.11860189  0.75214897  0.56324153     0.08100
H505        H  0.26650453  0.76567369  0.48187616     0.08000
C506        C  0.74894798  0.77847176  0.95376205     0.05000
C507        C  0.74948106  0.74991716  0.00229479    -0.11200
C508        C  0.75237685  0.77833395  0.05077491     0.02500
C509        C  0.75628507  0.83356611  0.04885480    -0.09700
C510        C  0.75237255  0.86069958  0.00180924     0.05000
C511        C  0.75199627  0.83338654  0.95492824    -0.09100
H512        H  0.74429561  0.70774298  0.00236166     0.10600
H513        H  0.75533685  0.85649161  0.08490822     0.08100
H514        H  0.74837499  0.85579806  0.91868597     0.08000
C515        C  0.26259997  0.31359291  0.45204757     0.05000
C516        C  0.26289917  0.28004250  0.49738634    -0.11200
C517        C  0.26739567  0.30288779  0.54866185     0.02500
C518        C  0.27128237  0.35787783  0.55280394    -0.09700
C519        C  0.26446920  0.39014076  0.50944282     0.05000
C520        C  0.26351909  0.36831505  0.45950722    -0.09100
H521        H  0.25862330  0.23797891  0.49293818     0.10600
H522        H  0.27147886  0.37640641  0.59133501     0.08100
H523        H  0.25729499  0.39441630  0.42618134     0.08000
C524        C  0.05068935  0.29592143  0.75464917     0.05000
C525        C  0.00765954  0.26107011  0.76014658    -0.11200
C526        C  0.95570615  0.28240412  0.76397853     0.02500
C527        C  0.94821682  0.33726785  0.76168908    -0.09700
C528        C  0.99035788  0.37090652  0.75941669     0.05000
C529        C  0.04083205  0.35044339  0.75451444    -0.09100
H530        H  0.01450052  0.21896134  0.76232880     0.10600
H531        H  0.90916625  0.35440735  0.76657953     0.08100
H532        H  0.07331260  0.37754246  0.75511763     0.08000
C533        C  0.20751207  0.06011549  0.73315928     0.05000
C534        C  0.15243246  0.06099146  0.72853556    -0.11200
C535        C  0.12397811  0.01504397  0.72969399     0.02500
C536        C  0.15002322  0.96707582  0.73526486    -0.09700
C537        C  0.20532936  0.96305172  0.73726884     0.05000
C538        C  0.23470792  0.01050011  0.73729083    -0.09100
H539        H  0.13139369  0.09812293  0.72279608     0.10600
H540        H  0.12641305  0.93193988  0.73475751     0.08100
H541        H  0.27714092  0.00890173  0.74015332     0.08000
C542        C  0.45928305  0.21002256  0.74962271     0.05000
C543        C  0.50719632  0.23915856  0.75305847    -0.11200
C544        C  0.55670455  0.21129452  0.75198655     0.02500
C545        C  0.55653367  0.15633792  0.74836750    -0.09700
C546        C  0.51061230  0.12875642  0.74494664     0.05000
C547        C  0.46260676  0.15497756  0.74574335    -0.09100
H548        H  0.50592790  0.28163688  0.75609386     0.10600
H549        H  0.59333042  0.13432987  0.74441822     0.08100
H550        H  0.42735347  0.13203123  0.74079802     0.08000
C551        C  0.29405045  0.55778933  0.73489077     0.05000
C552        C  0.26948124  0.50779882  0.73737748    -0.11200
C553        C  0.30112077  0.46116353  0.74376939     0.02500
C554        C  0.35595921  0.46585500  0.74604697    -0.09700
C555        C  0.37940982  0.51479139  0.74717365     0.05000
C556        C  0.34888536  0.56010642  0.74036473    -0.09100
H557        H  0.22711839  0.50534497  0.73518748     0.10600
H558        H  0.38067259  0.43117470  0.75250211     0.08100
H559        H  0.36766555  0.59804436  0.74326309     0.08000
C560        C  0.74817641  0.03628311  0.72104277     0.05000
C561        C  0.74219159  0.98600694  0.74516611    -0.11200
C562        C  0.73801938  0.94011983  0.71286540     0.02500
C563        C  0.73743261  0.94603746  0.65796312    -0.09700
C564        C  0.74453417  0.99466020  0.63456650     0.05000
C565        C  0.74885665  0.03929829  0.66580674    -0.09100
H566        H  0.74413915  0.98230339  0.78753115     0.10600
H567        H  0.73661650  0.91145864  0.63287214     0.08100
H568        H  0.75649484  0.07657231  0.64677709     0.08000
C569        C  0.04527582  0.75395770  0.78164112     0.05000
C570        C  0.99544633  0.75408569  0.75502764    -0.11200
C571        C  0.94829532  0.75214227  0.78521169     0.02500
C572        C  0.95272796  0.75193609  0.84047232    -0.09700
C573        C  0.00113789  0.75083231  0.86567665     0.05000
C574        C  0.04658439  0.75398522  0.83673212    -0.09100
H575        H  0.99359091  0.75249430  0.71253252     0.10600
H576        H  0.91807710  0.74809474  0.86464704     0.08100
H577        H  0.08394898  0.75159429  0.85760790     0.08000
C578        C  0.44860557  0.76210517  0.69615881     0.05000
C579        C  0.45639810  0.76325407  0.64159834    -0.11200
C580        C  0.50627542  0.76016910  0.62021840     0.02500
C581        C  0.54952974  0.75207485  0.65270904    -0.09700
C582        C  0.54444478  0.74908559  0.70753024     0.05000
C583        C  0.49341501  0.75562415  0.73010543    -0.09100
H584        H  0.42333165  0.77121641  0.61536642     0.10600
H585        H  0.58831620  0.75154084  0.63520188     0.08100
H586        H  0.48854502  0.75372732  0.77228633     0.08000
C587        C  0.74783920  0.53418599  0.80053200     0.05000
C588        C  0.74428865  0.53320212  0.85553726    -0.11200
C589        C  0.73814172  0.48647398  0.88235957     0.02500
C590        C  0.73834002  0.43938089  0.85523281    -0.09700
C591        C  0.74419409  0.43743254  0.80039569     0.05000
C592        C  0.74729717  0.48566376  0.77201811    -0.09100
H593        H  0.74158311  0.56978519  0.87754957     0.10600
H594        H  0.73173554  0.40350828  0.87722323     0.08100
H595        H  0.75095760  0.48542244  0.72965463     0.08000
C596        C  0.74150971  0.70026340  0.45353132     0.05000
C597        C  0.75014967  0.64552836  0.45022926    -0.11200
C598        C  0.75933180  0.61535243  0.49510310     0.02500
C599        C  0.75818163  0.63893107  0.54424581    -0.09700
C600        C  0.75016796  0.69328848  0.55000546     0.05000
C601        C  0.74254264  0.72487809  0.50404889    -0.09100
H602        H  0.75269856  0.62665017  0.41200529     0.10600
H603        H  0.76666926  0.61483605  0.57863122     0.08100
H604        H  0.73602179  0.76693283  0.50758512     0.08000
C605        C  0.91454180  0.97877505  0.27475354    -0.11400
C606        C  0.93830498  0.97285136  0.31526109    -0.13000
C607        C  0.19965867  0.00520859  0.41625097    -0.11400
C608        C  0.16328857  0.99478557  0.44384909    -0.13000
C609        C  0.76569395  0.99544552  0.58236269    -0.11400
C610        C  0.80091591  0.99108731  0.55124961    -0.13000
C611        C  0.03674962  0.01149747  0.67828308    -0.11400
C612        C  0.07054543  0.01533932  0.71126212    -0.13000
C613        C  0.41612764  0.77577524  0.99204802    -0.11400
C614        C  0.44857172  0.80943045  0.99009986    -0.13000
C615        C  0.32187349  0.04863404  0.99761198    -0.11400
C616        C  0.28921542  0.08320523  0.99548983    -0.13000
C617        C  0.68686860  0.93769377  0.00007084    -0.11400
C618        C  0.72603090  0.91076406  0.00192089    -0.13000
C619        C  0.55361562  0.17283781  0.01061776    -0.11400
C620        C  0.58069638  0.21086165  0.01317518    -0.13000
C621        C  0.98097289  0.45369201  0.81612297    -0.11400
C622        C  0.98380364  0.42283660  0.78042859    -0.13000
C623        C  0.00380948  0.28731923  0.07836984    -0.11400
C624        C  0.00274909  0.32461775  0.04951027    -0.13000
C625        C  0.00701043  0.68964378  0.94523525    -0.11400
C626        C  0.00479637  0.72691313  0.91638269    -0.13000
C627        C  0.00399636  0.55880005  0.18249594    -0.11400
C628        C  0.00161221  0.58650445  0.22071080    -0.13000
C629        C  0.27131719  0.51902878  0.06224316    -0.11400
C630        C  0.30973968  0.51429007  0.03582679    -0.13000
C631        C  0.53686736  0.47281981  0.18338151    -0.11400
C632        C  0.56752531  0.47838345  0.21898498    -0.13000
C633        C  0.42896158  0.51846677  0.77390682    -0.11400
C634        C  0.45558270  0.51626651  0.81310587    -0.13000
C635        C  0.67849474  0.48973675  0.96211661    -0.11400
C636        C  0.71550015  0.48791326  0.93342088    -0.13000
C637        C  0.04127733  0.67994196  0.48950596    -0.11400
C638        C  0.06663361  0.71840091  0.48222674    -0.13000
C639        C  0.23534182  0.43812372  0.51727971    -0.11400
C640        C  0.19431865  0.46153236  0.52272681    -0.13000
C641        C  0.96861090  0.31186397  0.53295130    -0.11400
C642        C  0.93973903  0.27529176  0.52864612    -0.13000
C643        C  0.78376892  0.56426744  0.49104144    -0.11400
C644        C  0.82059673  0.53401650  0.49199746    -0.13000
C645        C  0.51392016  0.07755735  0.72281549    -0.11400
C646        C  0.51912051  0.04978656  0.68531680    -0.13000
C647        C  0.48646522  0.22786029  0.43219524    -0.11400
C648        C  0.48128097  0.19151081  0.46138474    -0.13000
C649        C  0.48185394  0.93670752  0.28003721    -0.11400
C650        C  0.48560843  0.96558818  0.31716315    -0.13000
C651        C  0.51381517  0.78325102  0.56966462    -0.11400
C652        C  0.51626870  0.82114156  0.54176553    -0.13000
loop_ 
_geom_bond_atom_site_label_1 
_geom_bond_atom_site_label_2 
_geom_bond_distance 
_geom_bond_site_symmetry_2 
_ccdc_geom_bond_type 
N1            C6   1.349       .  A
N1            C5   1.348       .  A
N1           H33   1.041       .  S
N2            C9   1.346       .  A
N2           C10   1.349       .  A
N3            C8   1.348       .  A
N3            C7   1.347       .  A
N3           H34   1.043       .  S
N4           C11   1.346       .  A
N4           C12   1.344       .  A
C5           C13   1.386       .  A
C5           C21   1.405   1_545  A
C6           C22   1.411       .  A
C6           C14   1.390       .  A
C7           C15   1.389       .  A
C7           C24   1.409       .  A
C8           C23   1.394   1_565  A
C8           C16   1.381       .  A
C9           C21   1.413       .  A
C9           C17   1.390       .  A
C10          C24   1.398       .  A
C10          C18   1.380       .  A
C11          C19   1.384       .  A
C11          C22   1.398       .  A
C12          C20   1.388       .  A
C12          C23   1.404       .  A
C13          C14   1.378       .  A
C13          H25   1.082       .  S
C14          H26   1.082       .  S
C15          C16   1.367       .  A
C15          H27   1.072       .  S
C16          H28   1.083       .  S
C17          C18   1.370       .  A
C17          H29   1.074       .  S
C18          H30   1.082       .  S
C19          C20   1.372       .  A
C19          H31   1.082       .  S
C20          H32   1.079       .  S
C21         C650   1.440       .  S
C22         C648   1.435       .  S
C23         C646   1.431       .  S
C24         C652   1.441       .  S
N35          C40   1.347       .  A
N35          C39   1.348       .  A
N35          H67   1.044       .  S
N36          C43   1.350       .  A
N36          C44   1.346       .  A
N37          C42   1.351       .  A
N37          C41   1.350       .  A
N37          H68   1.042       .  S
N38          C45   1.347       .  A
N38          C46   1.349       .  A
C39          C47   1.390       .  A
C39          C55   1.407       .  A
C40          C56   1.401   1_655  A
C40          C48   1.385       .  A
C41          C49   1.384       .  A
C41          C58   1.405   1_455  A
C42          C57   1.415       .  A
C42          C50   1.391       .  A
C43          C55   1.402       .  A
C43          C51   1.382       .  A
C44          C58   1.410       .  A
C44          C52   1.390       .  A
C45          C53   1.389       .  A
C45          C56   1.411       .  A
C46          C54   1.382       .  A
C46          C57   1.401       .  A
C47          C48   1.374       .  A
C47          H59   1.082       .  S
C48          H60   1.082       .  S
C49          C50   1.376       .  A
C49          H61   1.082       .  S
C50          H62   1.079       .  S
C51          C52   1.374       .  A
C51          H63   1.082       .  S
C52          H64   1.079       .  S
C53          C54   1.372       .  A
C53          H65   1.077       .  S
C54          H66   1.083       .  S
C55         C644   1.442       .  S
C56         C637   1.436       .  S
C57         C640   1.444       .  S
C58         C641   1.440       .  S
N69          C74   1.347       .  A
N69          C73   1.350       .  A
N69         H101   1.042       .  S
N70          C77   1.346       .  A
N70          C78   1.346       .  A
N71          C76   1.352       .  A
N71          C75   1.349       .  A
N71         H102   1.042       .  S
N72          C79   1.346       .  A
N72          C80   1.345       .  A
C73          C81   1.383       .  A
C73          C89   1.402       .  A
C74          C90   1.411       .  A
C74          C82   1.391       .  A
C75          C83   1.390       .  A
C75          C92   1.412       .  A
C76          C91   1.405       .  A
C76          C84   1.384       .  A
C77          C89   1.409       .  A
C77          C85   1.389       .  A
C78          C92   1.395   1_556  A
C78          C86   1.381       .  A
C79          C87   1.384       .  A
C79          C90   1.399   1_554  A
C80          C88   1.390       .  A
C80          C91   1.406       .  A
C81          C82   1.377       .  A
C81          H93   1.082       .  S
C82          H94   1.080       .  S
C83          C84   1.376       .  A
C83          H95   1.079       .  S
C84          H96   1.082       .  S
C85          C86   1.368       .  A
C85          H97   1.073       .  S
C86          H98   1.083       .  S
C87          C88   1.373       .  A
C87          H99   1.082       .  S
C88         H100   1.082       .  S
C89         C634   1.443       .  S
C90         C635   1.435       .  S
C91         C631   1.441       .  S
C92         C630   1.435       .  S
N103        C108   1.350   1_655  A
N103        C107   1.350   1_655  A
N103        H135   1.039       .  S
N104        C111   1.348   1_455  A
N104        C112   1.349   1_455  A
N105        C110   1.351       .  A
N105        C109   1.349   1_655  A
N105        H136   1.040       .  S
N106        C113   1.348       .  A
N106        C114   1.347       .  A
C107        C115   1.383       .  A
C107        C123   1.403       .  A
C108        C124   1.413       .  A
C108        C116   1.391       .  A
C109        C117   1.391       .  A
C109        C126   1.413       .  A
C110        C125   1.405       .  A
C110        C118   1.385   1_655  A
C111        C123   1.411   1_655  A
C111        C119   1.390       .  A
C112        C126   1.402   1_654  A
C112        C120   1.383       .  A
C113        C121   1.383       .  A
C113        C124   1.400   1_656  A
C114        C122   1.389       .  A
C114        C125   1.409       .  A
C115        C116   1.375       .  A
C115        H127   1.082       .  S
C116        H128   1.081       .  S
C117        C118   1.376       .  A
C117        H129   1.081       .  S
C118        H130   1.082       .  S
C119        C120   1.371       .  A
C119        H131   1.079       .  S
C120        H132   1.082       .  S
C121        C122   1.372       .  A
C121        H133   1.082       .  S
C122        H134   1.079       .  S
C123        C627   1.442       .  S
C124        C624   1.440       .  S
C125        C621   1.442       .  S
C126        C625   1.440       .  S
N137        C142   1.351   1_556  A
N137        C141   1.352       .  A
N137        H169   1.039       .  S
N138        C145   1.345       .  A
N138        C146   1.349       .  A
N139        C144   1.349       .  A
N139        C143   1.347       .  A
N139        H170   1.039   1_554  S
N140        C147   1.347       .  A
N140        C148   1.347       .  A
C141        C149   1.385   1_556  A
C141        C157   1.407       .  A
C142        C158   1.415   1_554  A
C142        C150   1.390       .  A
C143        C151   1.389       .  A
C143        C160   1.407       .  A
C144        C159   1.400       .  A
C144        C152   1.384       .  A
C145        C157   1.409       .  A
C145        C153   1.390       .  A
C146        C160   1.399   1_566  A
C146        C154   1.382       .  A
C147        C155   1.383       .  A
C147        C158   1.400   1_545  A
C148        C156   1.388       .  A
C148        C159   1.409   1_556  A
C149        C150   1.378       .  A
C149        H161   1.082       .  S
C150        H162   1.081       .  S
C151        C152   1.373       .  A
C151        H163   1.078       .  S
C152        H164   1.082       .  S
C153        C154   1.373       .  A
C153        H165   1.079       .  S
C154        H166   1.082       .  S
C155        C156   1.371       .  A
C155        H167   1.082       .  S
C156        H168   1.077       .  S
C157        C614   1.442       .  S
C158        C617   1.441   1_556  S
C159        C619   1.439       .  S
C160        C615   1.439   1_554  S
O171        C187   1.276       .  A
O171       Zn177   2.003       .  S
C172        O188   1.274       .  A
C172        O185   1.284       .  A
C172        C506   1.490       .  S
O173        C186   1.277       .  A
O173       Cd180   2.120       .  S
O174        C192   1.282       .  A
O174       Cd183   2.138       .  S
O175        C189   1.281       .  A
O175       Cd179   2.082       .  S
O176        C187   1.281       .  A
O176       Cd179   2.155       .  S
Zn177       O188   2.057       .  S
Zn177       O190   2.015       .  S
Zn177       O182   1.946       .  S
O178        C189   1.280       .  A
O178       Cd183   2.136       .  S
Cd179       O181   2.141       .  S
Cd179       O182   2.049       .  S
Cd180       O184   2.066       .  S
Cd180       O193   2.078       .  S
Cd180       O182   2.009       .  S
O181        C191   1.282       .  A
O182       Cd183   2.038       .  S
Cd183       O185   2.095       .  S
O184        C191   1.277       .  A
C186        O190   1.276       .  A
C186        C587   1.488       .  S
C187        C571   1.505       .  S
C189        C562   1.497       .  S
C191        C600   1.492       .  S
C192        O193   1.278       .  A
C192        C582   1.493       .  S
O194        C210   1.276       .  A
O194       Zn200   2.070       .  S
C195        O211   1.274       .  A
C195        O208   1.283       .  A
C195        C537   1.505       .  S
O196        C209   1.277       .  A
O196       Cd203   2.124       .  S
O197        C215   1.284       .  A
O197       Cd206   2.159       .  S
O198        C212   1.280       .  A
O198       Cd202   2.126       .  S
O199        C210   1.282       .  A
O199       Cd202   2.086       .  S
Zn200       O211   1.988       .  S
Zn200       O213   2.015       .  S
Zn200       O205   1.945       .  S
O201        C212   1.283       .  A
O201       Cd206   2.097       .  S
Cd202       O204   2.136       .  S
Cd202       O205   2.031       .  S
Cd203       O207   2.078       .  S
Cd203       O216   2.053       .  S
Cd203       O205   2.010       .  S
O204        C214   1.282       .  A
O205       Cd206   2.058       .  S
Cd206       O208   2.167       .  S
O207        C214   1.277       .  A
C209        O213   1.277       .  A
C209        C501   1.492       .  S
C210        C569   1.493       .  S
C212        C479   1.494       .  S
C214        C551   1.492       .  S
C215        O216   1.276       .  A
C215        C578   1.497       .  S
O217        C233   1.281       .  A
O217       Zn223   2.099       .  S
C218        O234   1.281       .  A
C218        O231   1.274       .  A
C218        C434   1.498       .  S
O219        C232   1.286       .  A
O219       Cd226   2.173       .  S
O220        C238   1.273       .  A
O220       Cd229   2.032       .  S
O221        C235   1.278       .  A
O221       Cd225   2.125       .  S
O222        C233   1.280       .  A
O222       Cd225   2.082       .  S
Zn223       O234   2.042       .  S
Zn223       O236   1.988       .  S
Zn223       O228   1.937       .  S
O224        C235   1.276       .  A
O224       Cd229   2.061       .  S
Cd225       O227   2.043       .  S
Cd225       O228   1.999       .  S
Cd226       O230   2.178       .  S
Cd226       O239   2.157       .  S
Cd226       O228   2.093       .  S
O227        C237   1.274       .  A
O228       Cd229   1.995       .  S
Cd229       O231   2.113       .  S
O230        C237   1.288       .  A
C232        O236   1.274       .  A
C232        C544   1.500       .  S
C233        C560   1.499       .  S
C235        C526   1.491       .  S
C237        C456   1.500       .  S
C238        O239   1.284       .  A
C238        C591   1.491       .  S
O240        C256   1.284       .  A
O240       Zn246   2.127       .  S
C241        O257   1.284       .  A
C241        O254   1.279       .  A
C241        C542   1.501       .  S
O242        C255   1.273       .  A
O242       Cd249   2.044       .  S
O243        C261   1.285       .  A
O243       Cd252   2.154       .  S
O244        C258   1.277       .  A
O244       Cd248   2.114       .  S
O245        C256   1.275       .  A
O245       Cd248   2.052       .  S
Zn246       O257   2.053       .  S
Zn246       O259   2.132       .  S
Zn246       O251   1.993       .  S
O247        C258   1.285       .  A
O247       Cd252   2.102       .  S
Cd248       O250   2.066       .  S
Cd248       O251   1.999       .  S
Cd249       O253   2.109       .  S
Cd249       O262   2.053       .  S
Cd249       O251   2.006       .  S
O250        C260   1.276       .  A
O251       Cd252   2.045       .  S
Cd252       O254   2.131       .  S
O253        C260   1.274       .  A
C255        O259   1.287       .  A
C255        C533   1.492       .  S
C256        C517   1.500       .  S
C258        C553   1.499       .  S
C260        C524   1.489       .  S
C261        O262   1.274       .  A
C261        C407   1.491       .  S
O263        C279   1.283       .  A
O263       Zn269   2.127       .  S
C264        O280   1.282       .  A
C264        O277   1.280       .  A
C264        C472   1.502       .  S
O265        C278   1.278       .  A
O265       Cd272   2.066       .  S
O266        C284   1.283       .  A
O266       Cd275   2.140       .  S
O267        C281   1.275       .  A
O267       Cd271   2.102       .  S
O268        C279   1.274       .  A
O268       Cd271   2.040       .  S
Zn269       O280   2.045       .  S
Zn269       O282   2.115       .  S
Zn269       O274   2.001       .  S
O270        C281   1.285       .  A
O270       Cd275   2.107       .  S
Cd271       O273   2.053       .  S
Cd271       O274   1.995       .  S
Cd272       O276   2.144       .  S
Cd272       O285   2.089       .  S
Cd272       O274   2.018       .  S
O273        C283   1.274       .  A
O274       Cd275   2.038       .  S
Cd275       O277   2.140       .  S
O276        C283   1.281       .  A
C278        O282   1.285       .  A
C278        C443   1.496       .  S
C279        C508   1.501       .  S
C281        C427   1.491       .  S
C283        C490   1.494       .  S
C284        O285   1.279       .  A
C284        C596   1.495       .  S
O286        C302   1.282       .  A
O286       Zn292   2.044       .  S
C287        O303   1.278       .  A
C287        O300   1.281       .  A
C287        C368   1.499       .  S
O288        C301   1.282       .  A
O288       Cd295   2.153       .  S
O289        C307   1.274       .  A
O289       Cd298   2.047       .  S
O290        C304   1.282       .  A
O290       Cd294   2.093       .  S
O291        C302   1.279       .  A
O291       Cd294   2.130       .  S
Zn292       O303   2.093       .  S
Zn292       O305   1.984       .  S
Zn292       O297   1.951       .  S
O293        C304   1.277       .  A
O293       Cd298   2.128       .  S
Cd294       O296   2.052       .  S
Cd294       O297   1.996       .  S
Cd295       O299   2.162       .  S
Cd295       O308   2.150       .  S
Cd295       O297   2.092       .  S
O296        C306   1.276       .  A
O297       Cd298   1.999       .  S
Cd298       O300   2.073       .  S
O299        C306   1.284       .  A
C301        O305   1.273       .  A
C301        C488   1.492       .  S
C302        C481   1.502       .  S
C304        C470   1.503       .  S
C306        C461   1.501       .  S
C307        O308   1.284       .  A
C307        C497   1.489       .  S
O309        C325   1.282       .  A
O309       Zn315   2.111       .  S
C310        O326   1.280       .  A
C310        O323   1.278       .  A
C310        C438   1.494       .  S
O311        C324   1.281       .  A
O311       Cd318   2.074       .  S
O312        C330   1.283       .  A
O312       Cd321   2.095       .  S
O313        C327   1.279       .  A
O313       Cd317   2.087       .  S
O314        C325   1.278       .  A
O314       Cd317   2.069       .  S
Zn315       O326   2.026       .  S
Zn315       O328   2.119       .  S
Zn315       O320   2.004       .  S
O316        C327   1.281       .  A
O316       Cd321   2.129       .  S
Cd317       O319   2.126       .  S
Cd317       O320   2.014       .  S
Cd318       O322   2.090       .  S
Cd318       O331   2.126       .  S
Cd318       O320   2.007       .  S
O319        C329   1.279       .  A
O320       Cd321   2.040       .  S
Cd321       O323   2.127       .  S
O322        C329   1.281       .  A
C324        O328   1.283       .  A
C324        C425   1.508       .  S
C325        C416   1.498       .  S
C327        C445   1.491       .  S
C329        C452   1.497       .  S
C330        O331   1.278       .  A
C330        C400   1.499       .  S
N332        C337   1.350   1_565  A
N332        C336   1.347   1_565  A
N332        H364   1.043       .  S
N333        C340   1.349       .  A
N333        C341   1.345       .  A
N334        C339   1.351       .  A
N334        C338   1.353       .  A
N334        H365   1.042       .  S
N335        C342   1.346       .  A
N335        C343   1.344       .  A
C336        C344   1.388       .  A
C336        C352   1.405       .  A
C337        C353   1.401   1_545  A
C337        C345   1.384       .  A
C338        C346   1.384   1_565  A
C338        C355   1.410       .  A
C339        C354   1.418       .  A
C339        C347   1.391   1_565  A
C340        C352   1.400   1_665  A
C340        C348   1.381       .  A
C341        C355   1.411       .  A
C341        C349   1.391       .  A
C342        C350   1.388       .  A
C342        C353   1.406       .  A
C343        C351   1.386       .  A
C343        C354   1.400   1_455  A
C344        C345   1.372       .  A
C344        H356   1.081       .  S
C345        H357   1.082       .  S
C346        C347   1.380       .  A
C346        H358   1.082       .  S
C347        H359   1.080       .  S
C348        C349   1.374       .  A
C348        H360   1.082       .  S
C349        H361   1.079       .  S
C350        C351   1.374       .  A
C350        H362   1.080       .  S
C351        H363   1.083       .  S
C352        C611   1.441       .  S
C353        C608   1.440       .  S
C354        C606   1.440       .  S
C355        C610   1.446       .  S
C366        C367   1.434       .  A
C366        C371   1.409       .  A
C366        C396   1.497       .  S
C367        C368   1.429   1_545  A
C367        H372   1.082       .  S
C368        C369   1.401       .  A
C369        C370   1.381   1_565  A
C369        H373   1.086       .  S
C370        C371   1.386       .  A
C370        C607   1.429       .  S
C371        H374   1.085       .  S
O375        C391   1.279       .  A
O375       Zn381   2.025       .  S
C376        O392   1.277       .  A
C376        O389   1.281       .  A
C376        C409   1.495       .  S
O377        C390   1.282       .  A
O377       Cd384   2.162       .  S
O378        C396   1.280       .  A
O378       Cd387   2.133       .  S
O379        C393   1.280       .  A
O379       Cd383   2.093       .  S
O380        C391   1.279       .  A
O380       Cd383   2.142       .  S
Zn381       O392   2.074       .  S
Zn381       O394   2.002       .  S
Zn381       O386   1.940       .  S
O382        C393   1.282       .  A
O382       Cd387   2.127       .  S
Cd383       O385   2.078       .  S
Cd383       O386   2.018       .  S
Cd384       O388   2.146       .  S
Cd384       O397   2.073       .  S
Cd384       O386   2.054       .  S
O385        C395   1.280       .  A
O386       Cd387   2.034       .  S
Cd387       O389   2.086       .  S
O388        C395   1.283       .  A
C390        O394   1.277       .  A
C390        C398   1.510       .  S
C391        C465   1.502       .  S
C393        C420   1.490       .  S
C395        C515   1.498       .  S
C396        O397   1.279       .  A
C398        C399   1.434       .  A
C398        C403   1.410       .  A
C399        C400   1.436   1_455  A
C399        H404   1.082       .  S
C400        C401   1.403       .  A
C401        C402   1.382   1_655  A
C401        H405   1.086       .  S
C402        C403   1.384       .  A
C402        C623   1.429       .  S
C403        H406   1.085       .  S
C407        C408   1.428   1_556  A
C407        C412   1.404       .  A
C408        C409   1.430       .  A
C408        H413   1.082       .  S
C409        C410   1.404       .  A
C410        C411   1.386   1_554  A
C410        H414   1.086       .  S
C411        C412   1.385       .  A
C411        C616   1.431       .  S
C412        H415   1.086       .  S
C416        C417   1.403       .  A
C416        C421   1.433       .  A
C417        C418   1.387       .  A
C417        H422   1.086       .  S
C418        C419   1.382       .  A
C418        C647   1.423       .  S
C419        C420   1.399       .  A
C419        H423   1.087       .  S
C420        C421   1.431       .  A
C421        H424   1.082       .  S
C425        C426   1.434   1_545  A
C425        C430   1.409       .  A
C426        C427   1.434       .  A
C426        H431   1.082   1_565  S
C427        C428   1.397       .  A
C428        C429   1.379       .  A
C428        H432   1.087       .  S
C429        C430   1.386   1_565  A
C429        C605   1.425       .  S
C430        H433   1.085       .  S
C434        C435   1.403       .  A
C434        C439   1.430   1_556  A
C435        C436   1.386   1_556  A
C435        H440   1.086       .  S
C436        C437   1.383       .  A
C436        C620   1.427       .  S
C437        C438   1.403       .  A
C437        H441   1.086       .  S
C438        C439   1.431       .  A
C439        H442   1.082       .  S
C443        C444   1.430       .  A
C443        C448   1.404       .  A
C444        C445   1.429       .  A
C444        H449   1.082       .  S
C445        C446   1.403       .  A
C446        C447   1.387       .  A
C446        H450   1.086       .  S
C447        C448   1.388       .  A
C447        C632   1.432       .  S
C448        H451   1.086       .  S
C452        C453   1.406       .  A
C452        C457   1.434       .  A
C453        C454   1.387       .  A
C453        H458   1.085       .  S
C454        C455   1.384       .  A
C454        C642   1.430       .  S
C455        C456   1.405       .  A
C455        H459   1.087       .  S
C456        C457   1.428       .  A
C457        H460   1.082       .  S
C461        C462   1.406       .  A
C461        C466   1.435       .  A
C462        C463   1.381       .  A
C462        H467   1.086       .  S
C463        C464   1.381       .  A
C463        C629   1.423       .  S
C464        C465   1.402       .  A
C464        H468   1.086       .  S
C465        C466   1.436       .  A
C466        H469   1.082       .  S
C470        C471   1.433   1_455  A
C470        C475   1.403       .  A
C471        C472   1.436       .  A
C471        H476   1.082       .  S
C472        C473   1.405       .  A
C473        C474   1.387       .  A
C473        H477   1.085       .  S
C474        C475   1.385   1_655  A
C474        C628   1.431   1_655  S
C475        H478   1.086       .  S
C479        C480   1.432       .  A
C479        C484   1.401       .  A
C480        C481   1.431   1_556  A
C480        H485   1.082       .  S
C481        C482   1.407       .  A
C482        C483   1.389   1_554  A
C482        H486   1.086       .  S
C483        C484   1.386       .  A
C483        C613   1.432       .  S
C484        H487   1.086       .  S
C488        C489   1.428       .  A
C488        C493   1.405       .  A
C489        C490   1.429       .  A
C489        H494   1.082       .  S
C490        C491   1.406       .  A
C491        C492   1.385       .  A
C491        H495   1.086       .  S
C492        C493   1.382       .  A
C492        C649   1.430       .  S
C493        H496   1.086       .  S
C497        C498   1.403       .  A
C497        C502   1.428       .  A
C498        C499   1.382       .  A
C498        H503   1.086       .  S
C499        C500   1.383       .  A
C499        C638   1.424       .  S
C500        C501   1.402       .  A
C500        H504   1.086       .  S
C501        C502   1.430       .  A
C502        H505   1.082       .  S
C506        C507   1.433   1_556  A
C506        C511   1.399       .  A
C507        C508   1.430       .  A
C507        H512   1.082       .  S
C508        C509   1.410       .  A
C509        C510   1.384       .  A
C509        H513   1.086       .  S
C510        C511   1.379   1_554  A
C510        C618   1.428       .  S
C511        H514   1.087       .  S
C515        C516   1.435       .  A
C515        C520   1.404       .  A
C516        C517   1.431       .  A
C516        H521   1.082       .  S
C517        C518   1.407       .  A
C518        C519   1.383       .  A
C518        H522   1.087       .  S
C519        C520   1.386       .  A
C519        C639   1.430       .  S
C520        H523   1.086       .  S
C524        C525   1.429       .  A
C524        C529   1.404       .  A
C525        C526   1.424   1_455  A
C525        H530   1.083       .  S
C526        C527   1.405       .  A
C527        C528   1.385       .  A
C527        H531   1.086       .  S
C528        C529   1.384   1_655  A
C528        C622   1.431       .  S
C529        H532   1.086       .  S
C533        C534   1.406       .  A
C533        C538   1.431       .  A
C534        C535   1.386       .  A
C534        H539   1.086       .  S
C535        C536   1.384   1_545  A
C535        C612   1.435       .  S
C536        C537   1.410       .  A
C536        H540   1.085       .  S
C537        C538   1.430   1_565  A
C538        H541   1.082       .  S
C542        C543   1.440       .  A
C542        C547   1.403       .  A
C543        C544   1.435       .  A
C543        H548   1.082       .  S
C544        C545   1.400       .  A
C545        C546   1.376       .  A
C545        H549   1.088       .  S
C546        C547   1.382       .  A
C546        C645   1.418       .  S
C547        H550   1.085       .  S
C551        C552   1.428       .  A
C551        C556   1.404       .  A
C552        C553   1.430       .  A
C552        H557   1.082       .  S
C553        C554   1.404       .  A
C554        C555   1.389       .  A
C554        H558   1.085       .  S
C555        C556   1.388       .  A
C555        C633   1.433       .  S
C556        H559   1.086       .  S
C560        C561   1.429   1_545  A
C560        C565   1.407       .  A
C561        C562   1.431       .  A
C561        H566   1.082       .  S
C562        C563   1.405       .  A
C563        C564   1.388       .  A
C563        H567   1.086       .  S
C564        C565   1.390   1_565  A
C564        C609   1.437       .  S
C565        H568   1.086       .  S
C569        C570   1.433   1_455  A
C569        C574   1.401       .  A
C570        C571   1.432       .  A
C570        H575   1.082       .  S
C571        C572   1.409       .  A
C572        C573   1.384   1_655  A
C572        H576   1.085       .  S
C573        C574   1.380       .  A
C573        C626   1.428       .  S
C574        H577   1.086       .  S
C578        C579   1.404       .  A
C578        C583   1.432       .  A
C579        C580   1.386       .  A
C579        H584   1.086       .  S
C580        C581   1.384       .  A
C580        C651   1.430       .  S
C581        C582   1.404       .  A
C581        H585   1.086       .  S
C582        C583   1.432       .  A
C583        H586   1.082       .  S
C587        C588   1.403       .  A
C587        C592   1.430       .  A
C588        C589   1.382       .  A
C588        H593   1.086       .  S
C589        C590   1.381       .  A
C589        C636   1.425       .  S
C590        C591   1.405       .  A
C590        H594   1.087       .  S
C591        C592   1.427       .  A
C592        H595   1.082       .  S
C596        C597   1.407       .  A
C596        C601   1.429       .  A
C597        C598   1.392       .  A
C597        H602   1.086       .  S
C598        C599   1.386       .  A
C598        C643   1.433       .  S
C599        C600   1.400       .  A
C599        H603   1.086       .  S
C600        C601   1.429       .  A
C601        H604   1.082       .  S
C605        C606   1.199       .  T
C607        C608   1.200   1_545  T
C609        C610   1.204       .  T
C611        C612   1.202       .  T
C613        C614   1.201       .  T
C615        C616   1.200       .  T
C617        C618   1.200       .  T
C619        C620   1.199       .  T
C621        C622   1.201       .  T
C623        C624   1.199       .  T
C625        C626   1.199       .  T
C627        C628   1.201       .  T
C629        C630   1.195       .  T
C631        C632   1.201       .  T
C633        C634   1.202       .  T
C635        C636   1.197       .  T
C637        C638   1.196       .  T
C639        C640   1.202       .  T
C641        C642   1.200       .  T
C643        C644   1.202       .  T
C645        C646   1.193       .  T
C647        C648   1.196       .  T
C649        C650   1.200       .  T
C651        C652   1.200       .  T
