geometry optimzed in LAMMPS
_audit_creation_date              2020-11-30 
_audit_creation_method            'lammps2cif' 
_symmetry_space_group_name_H-M    'P1' 
_symmetry_Int_Tables_number       1 
_symmetry_cell_setting            triclinic 
loop_ 
_symmetry_equiv_pos_as_xyz 
  x,y,z 
_cell_length_a                    42.709118434720494 
_cell_length_b                    39.970519874317205 
_cell_length_c                    29.619544793961925 
_cell_angle_alpha                 90.47207572223452 
_cell_angle_beta                  87.0764108552838 
_cell_angle_gamma                 118.33185484146102 
loop_ 
_atom_site_label 
_atom_site_type_symbol 
_atom_site_fract_x 
_atom_site_fract_y 
_atom_site_fract_z 
_atom_site_charge 
N1          N  0.35754404  0.16881567  0.07871560    -0.06740
N2          N  0.34458969  0.15088600  0.04114833    -0.58860
N3          N  0.41473726  0.23101287  0.14531816    -0.06420
N4          N  0.44221620  0.25483329  0.11884021    -0.60990
N5          N  0.41389735  0.19742882  0.14607987    -0.06020
N6          N  0.44076148  0.19906068  0.11996794    -0.58840
N7          N  0.35957331  0.20270864  0.07795788    -0.05700
N8          N  0.34834019  0.20875512  0.04016190    -0.61340
C9          C  0.33893747  0.17625555  0.01802993     0.95430
C10         C  0.45780634  0.23456437  0.10206867     0.95210
N11         N  0.33681747  0.25104530  0.22683550    -0.06930
N12         N  0.34241555  0.26825340  0.26586341    -0.59440
N13         N  0.31778319  0.23957208  0.12090455    -0.05050
N14         N  0.31381279  0.25330082  0.08248576    -0.60690
N15         N  0.28764826  0.22395618  0.14550921    -0.06960
N16         N  0.26238952  0.22668284  0.12403008    -0.59710
N17         N  0.36696117  0.26291795  0.20268096    -0.04690
N18         N  0.39379366  0.28812981  0.22552745    -0.60780
Mn19       Mn  0.36556227  0.23516519  0.13782920     1.18440
C20         C  0.37785982  0.29149610  0.26500173     0.97520
C21         C  0.27937579  0.24540635  0.08475641     0.98180
N22         N  0.36416770  0.12036135  0.20883572    -0.06980
N23         N  0.39010605  0.11899281  0.23051302    -0.63290
N24         N  0.28433072  0.07956495  0.15298859    -0.05780
N25         N  0.25788365  0.05228595  0.13126884    -0.63960
N26         N  0.31412434  0.09248629  0.12787763    -0.06480
N27         N  0.30878142  0.07455115  0.08928432    -0.63550
N28         N  0.33463908  0.10618752  0.23485684    -0.05380
N29         N  0.33987163  0.09512728  0.27429943    -0.64240
Mn30       Mn  0.36316319  0.14430709  0.14134501     1.10660
C31         C  0.37438267  0.10308369  0.27158516     0.98740
C32         C  0.27379661  0.04953666  0.09126681     0.98820
N33         N  0.23711735  0.14596584  0.20473434    -0.06490
N34         N  0.20830598  0.14373307  0.22654804    -0.61860
N35         N  0.28967432  0.14184592  0.27885022    -0.05810
N36         N  0.29616003  0.13549395  0.31995309    -0.58590
N37         N  0.29076677  0.17522968  0.27631011    -0.07120
N38         N  0.29836630  0.19248651  0.31539433    -0.61430
N39         N  0.23665207  0.11263911  0.20754747    -0.06110
N40         N  0.20779237  0.08849960  0.23163268    -0.58620
Mn41       Mn  0.28739125  0.19941211  0.21234526     1.20190
Mn42       Mn  0.28573878  0.10882095  0.21799970     1.10090
Cl43       Cl  0.32555846  0.17189067  0.17766964    -0.86590
C44         C  0.19066884  0.10824259  0.24447486     0.95750
C45         C  0.30134739  0.16723451  0.34212342     0.95540
N46         N  0.30229913  0.07639908  0.64026438    -0.06740
N47         N  0.27632541  0.05201147  0.61506083    -0.58860
N48         N  0.38103432  0.11640482  0.70112781    -0.06420
N49         N  0.40697438  0.11617586  0.72409604    -0.60990
N50         N  0.35103141  0.10082044  0.72602745    -0.06020
N51         N  0.35597969  0.09006549  0.76590391    -0.58840
N52         N  0.33275179  0.09093675  0.61632196    -0.05700
N53         N  0.32822914  0.07684576  0.57539149    -0.61340
C54         C  0.29312817  0.05254541  0.57424438     0.95430
C55         C  0.39079795  0.09932674  0.76479490     0.95210
N56         N  0.43037039  0.22897666  0.64551753    -0.06930
N57         N  0.45877563  0.25445357  0.62185484    -0.59440
N58         N  0.37768430  0.16972603  0.57163569    -0.05050
N59         N  0.36734231  0.15469614  0.53170526    -0.60690
N60         N  0.37961647  0.20355001  0.57328668    -0.06960
N61         N  0.37150745  0.21267047  0.53492731    -0.59710
N62         N  0.43026905  0.19573631  0.64424721    -0.04690
N63         N  0.45841134  0.19922781  0.61953488    -0.60780
Mn64       Mn  0.38096236  0.14240815  0.63423143     1.18440
C65         C  0.47573208  0.23563064  0.60469743     0.97520
C66         C  0.36404776  0.18224590  0.50953978     0.98180
N67         N  0.30405327  0.13313194  0.77044881    -0.06980
N68         N  0.30691837  0.12465495  0.81234172    -0.63290
N69         N  0.25120695  0.13693241  0.70031857    -0.05780
N70         N  0.22421890  0.13334984  0.72780798    -0.63960
N71         N  0.25190604  0.10406334  0.69962121    -0.06480
N72         N  0.22529960  0.07894005  0.72619528    -0.63550
N73         N  0.30311487  0.16553359  0.76896167    -0.05380
N74         N  0.30498693  0.17977787  0.80917267    -0.64240
Mn75       Mn  0.30200993  0.10232269  0.70808948     1.10660
C76         C  0.30745427  0.15415471  0.83552118     0.98740
C77         C  0.20881498  0.09754970  0.74502237     0.98820
N78         N  0.33159669  0.23278187  0.61694652    -0.06490
N79         N  0.32700421  0.24440419  0.57753082    -0.61860
N80         N  0.34920063  0.24455120  0.72492648    -0.05810
N81         N  0.35339662  0.26363911  0.76278139    -0.58590
N82         N  0.37949763  0.25841666  0.70072667    -0.07120
N83         N  0.40484770  0.28727025  0.72175953    -0.61430
N84         N  0.30122533  0.21630506  0.64109636    -0.06110
N85         N  0.27534711  0.21674906  0.61847919    -0.58620
Mn86       Mn  0.38085488  0.23192975  0.63542175     1.20190
Mn87       Mn  0.30079067  0.19143339  0.70752968     1.10090
Cl88       Cl  0.34116536  0.16700532  0.67147375    -0.86590
C89         C  0.29196963  0.23400134  0.57842804     0.95750
C90         C  0.38800545  0.29058506  0.76043123     0.95540
N91         N  0.17529345  0.37040408  0.43513882    -0.06740
N92         N  0.15907832  0.35583115  0.47457958    -0.58860
N93         N  0.23269307  0.43123005  0.35988544    -0.06420
N94         N  0.25670202  0.46038017  0.38181091    -0.60990
N95         N  0.20155234  0.43097882  0.36487868    -0.06020
N96         N  0.20485559  0.45949995  0.39113132    -0.58840
N97         N  0.20661193  0.37155772  0.43170184    -0.05700
N98         N  0.21232829  0.35775791  0.46831028    -0.61340
C99         C  0.18253213  0.34777558  0.49433864     0.95430
C100        C  0.23930122  0.47767716  0.40186969     0.95210
N101        N  0.24925256  0.34727906  0.27947484    -0.06930
N102        N  0.26648205  0.35227809  0.23987739    -0.59440
N103        N  0.23936643  0.32698388  0.38691146    -0.05050
N104        N  0.25295035  0.32371677  0.42432977    -0.60690
N105        N  0.22517779  0.29459393  0.36553696    -0.06960
N106        N  0.22952512  0.26860282  0.38829190    -0.59710
N107        N  0.26142333  0.37952244  0.30120647    -0.04690
N108        N  0.28755719  0.40728947  0.27657498    -0.60780
Mn109      Mn  0.23597477  0.37823530  0.36851854     1.18440
C110        C  0.29019511  0.38950488  0.23832417     0.97520
C111        C  0.24727257  0.28766787  0.42510260     0.98180
N112        N  0.12788203  0.37796882  0.31045536    -0.06980
N113        N  0.12284525  0.40383352  0.28844958    -0.63290
N114        N  0.08994658  0.29306790  0.37330606    -0.05780
N115        N  0.06150129  0.26633344  0.39612894    -0.63960
N116        N  0.10268506  0.32511336  0.39540467    -0.06480
N117        N  0.08366092  0.32112836  0.43320680    -0.63550
N118        N  0.11475315  0.34606923  0.28796077    -0.05380
N119        N  0.10146217  0.34960123  0.25048487    -0.64240
Mn120      Mn  0.15148809  0.37704860  0.37550516     1.10660
C121        C  0.10591172  0.38517302  0.25097211     0.98740
C122        C  0.05794889  0.28470804  0.43344969     0.98820
N123        N  0.15046949  0.24107909  0.31285437    -0.06490
N124        N  0.14686841  0.21200057  0.28757757    -0.61860
N125        N  0.14645528  0.29967186  0.24305610    -0.05810
N126        N  0.14088785  0.31061046  0.20400458    -0.58590
N127        N  0.17718092  0.29946451  0.24124754    -0.07120
N128        N  0.19326914  0.31004681  0.20106480    -0.61430
N129        N  0.11940084  0.24109101  0.31720687    -0.06110
N130        N  0.09514572  0.21140437  0.29623622    -0.58620
Mn131      Mn  0.20089549  0.29469504  0.30104552     1.20190
Mn132      Mn  0.11670678  0.29420687  0.30653606     1.10090
Cl133      Cl  0.17622935  0.33602383  0.33791587    -0.86590
C134        C  0.11238531  0.19356172  0.27723207     0.95750
C135        C  0.17023053  0.31676602  0.17869836     0.95540
N136        N  0.20332530  0.29202477  0.87115989    -0.06740
N137        N  0.22977359  0.29054751  0.89118273    -0.58860
N138        N  0.12211935  0.25060638  0.81601501    -0.06420
N139        N  0.09539927  0.22431772  0.79374267    -0.60990
N140        N  0.15189232  0.26420149  0.79073713    -0.06020
N141        N  0.14601950  0.24761558  0.75120149    -0.58840
N142        N  0.17367207  0.27512786  0.89658699    -0.05700
N143        N  0.17923654  0.26170113  0.93423999    -0.61340
C144        C  0.21413635  0.27122522  0.93056878     0.95430
C145        C  0.11085352  0.22279570  0.75293667     0.95210
N146        N  0.07390767  0.31337143  0.87656631    -0.06930
N147        N  0.04722267  0.31114760  0.90348882    -0.59440
N148        N  0.13067905  0.31001818  0.94210694    -0.05050
N149        N  0.14493024  0.30505049  0.97766385    -0.60690
N150        N  0.13172937  0.34348419  0.94265941    -0.06960
N151        N  0.14694618  0.36188520  0.97925394    -0.59710
N152        N  0.07398913  0.28024930  0.87715568    -0.04690
N153        N  0.04733846  0.25617455  0.90455675    -0.60780
Mn154      Mn  0.12425196  0.27777085  0.88194349     1.18440
C155        C  0.03126354  0.27583450  0.92181935     0.97520
C156        C  0.15526306  0.33747626  0.00027115     0.98180
N157        N  0.19546941  0.34013669  0.74437341    -0.06980
N158        N  0.18822254  0.32275089  0.70575014    -0.63290
N159        N  0.25042753  0.40387011  0.80896922    -0.05780
N160        N  0.27812032  0.42840363  0.78325763    -0.63960
N161        N  0.25109562  0.37110115  0.81138406    -0.06480
N162        N  0.27965272  0.37425091  0.78793125    -0.63550
N163        N  0.19426978  0.37231396  0.74231886    -0.05380
N164        N  0.18606086  0.37767627  0.70181334    -0.64240
Mn165      Mn  0.20124697  0.31652535  0.80564820     1.10660
C166        C  0.18192295  0.34613027  0.68022316     0.98740
C167        C  0.29623846  0.40982997  0.76980605     0.98820
N168        N  0.17212430  0.42051610  0.89310981    -0.06490
N169        N  0.17737171  0.43864315  0.93154420    -0.61860
N170        N  0.15071059  0.40651876  0.78736074    -0.05810
N171        N  0.14567088  0.41791214  0.74813837    -0.58590
N172        N  0.12089821  0.39051722  0.81270988    -0.07120
N173        N  0.09463763  0.39069386  0.79039235    -0.61430
N174        N  0.20171071  0.43435461  0.86745079    -0.06110
N175        N  0.22791420  0.46244376  0.88852271    -0.58620
Mn176      Mn  0.12374278  0.36742028  0.88043733     1.20190
Mn177      Mn  0.19996480  0.40554169  0.80241555     1.10090
Cl178      Cl  0.16236015  0.34188932  0.84276749    -0.86590
C179        C  0.21206252  0.46468178  0.92879261     0.95750
C180        C  0.11091959  0.40826067  0.75006271     0.95540
N181        N  0.46893155  0.41288520  0.97654894    -0.06740
N182        N  0.44255179  0.38571826  0.95480247    -0.58860
N183        N  0.04865741  0.45225605  0.03475040    -0.06420
N184        N  0.07454289  0.45177090  0.05742315    -0.60990
N185        N  0.01827159  0.43556099  0.05882129    -0.06020
N186        N  0.02268340  0.42335275  0.09788618    -0.58840
N187        N  0.49891989  0.42618420  0.95178371    -0.05700
N188        N  0.49360057  0.40840200  0.91283008    -0.61340
C189        C  0.45851599  0.38300380  0.91501043     0.95430
C190        C  0.05764464  0.43374193  0.09709605     0.95210
N191        N  0.09941858  0.06470306  0.97636720    -0.06930
N192        N  0.12590466  0.08892819  0.94886228    -0.59440
N193        N  0.04417520  0.50468846  0.90924551    -0.05050
N194        N  0.53476746  0.48763648  0.87079746    -0.60690
N195        N  0.04386443  0.03741139  0.90890124    -0.06960
N196        N  0.03405768  0.04330920  0.86959953    -0.59710
N197        N  0.09892433  0.03123184  0.97540336    -0.04690
N198        N  0.12497227  0.03350456  0.94703924    -0.60780
Mn199      Mn  0.04835579  0.47811450  0.96906990     1.18440
C200        C  0.14100525  0.06912719  0.92936058     0.97520
C201        C  0.52914399  0.51214105  0.84640756     0.98180
N202        N  0.97485782  0.46852912  0.10548848    -0.06980
N203        N  0.98701903  0.46127168  0.14187867    -0.63290
N204        N  0.42191070  0.47728690  0.03591359    -0.05780
N205        N  0.39234655  0.47335937  0.05735616    -0.63960
N206        N  0.42132803  0.44390051  0.03396935    -0.06480
N207        N  0.39138968  0.41771103  0.05402603    -0.63550
N208        N  0.97702822  0.00245587  0.10734321    -0.05380
N209        N  0.99124068  0.01911875  0.14518699    -0.64240
Mn210      Mn  0.46994553  0.43904907  0.04279176     1.10660
C211        C  0.99759512  0.99309318  0.16580059     0.98740
C212        C  0.37347645  0.43617835  0.06889719     0.98820
N213        N  0.50135168  0.07254186  0.95579367    -0.06490
N214        N  0.49673216  0.08513804  0.91699833    -0.61860
N215        N  0.02072668  0.08086597  0.06328062    -0.05810
N216        N  0.02520039  0.09624865  0.10340849    -0.58590
N217        N  0.05119949  0.09446581  0.03949910    -0.07120
N218        N  0.07723444  0.11936653  0.06419003    -0.61430
N219        N  0.47148114  0.05725636  0.98091127    -0.06110
N220        N  0.44601152  0.05975033  0.95932821    -0.58620
Mn221      Mn  0.04972202  0.06865358  0.97123712     1.20190
Mn222      Mn  0.47190442  0.02994711  0.04627329     1.10090
Cl223      Cl  0.01009271  0.00402478  0.00732282    -0.86590
C224        C  0.46238119  0.07762184  0.91913600     0.95750
C225        C  0.06031121  0.12039505  0.10432210     0.95540
N226        N  0.00059383  0.03882575  0.40877377    -0.06740
N227        N  0.02065002  0.04555774  0.37111304    -0.58860
N228        N  0.43459581  0.03128945  0.47545940    -0.06420
N229        N  0.41127770  0.03380333  0.44977388    -0.60990
N230        N  0.46367431  0.06482455  0.47620847    -0.06020
N231        N  0.45968155  0.08946094  0.45048682    -0.58840
N232        N  0.47217318  0.50517488  0.40806815    -0.05700
N233        N  0.47242724  0.48847706  0.36992836    -0.61340
C234        C  0.00280608  0.51367379  0.34755737     0.95430
C235        C  0.42704527  0.06990952  0.43407230     0.95210
N236        N  0.42202283  0.43445293  0.55833614    -0.06930
N237        N  0.40448321  0.42226834  0.59755346    -0.59440
N238        N  0.44083937  0.42511601  0.45266398    -0.05050
N239        N  0.42868174  0.40432390  0.41659941    -0.60690
N240        N  0.45568284  0.41041928  0.47817221    -0.06960
N241        N  0.45362937  0.37898474  0.46014850    -0.59710
N242        N  0.40841336  0.45170032  0.53480247    -0.04690
N243        N  0.38086015  0.45144362  0.55860138    -0.60780
Mn244      Mn  0.43770040  0.47789892  0.46839761     1.18440
C245        C  0.37861922  0.43229302  0.59781146     0.97520
C246        C  0.43694019  0.37593302  0.42137929     0.98180
N247        N  0.03500800  0.09382525  0.53930644    -0.06980
N248        N  0.03774200  0.12463819  0.56034814    -0.63290
N249        N  0.08137777  0.05267312  0.48014140    -0.05780
N250        N  0.10787078  0.05127057  0.45598876    -0.63960
N251        N  0.06854339  0.07092052  0.45701148    -0.06480
N252        N  0.08567425  0.08229679  0.41740686    -0.63550
N253        N  0.04929472  0.07755034  0.56330307    -0.05380
N254        N  0.06115509  0.09592826  0.60086585    -0.64240
Mn255      Mn  0.01698344  0.06844313  0.47177512     1.10660
C256        C  0.05381605  0.12501253  0.59922734     0.98740
C257        C  0.10979755  0.06985153  0.41667263     0.98820
N258        N  0.02664257  0.43959636  0.53760002    -0.06490
N259        N  0.03121173  0.41542293  0.56343018    -0.61860
N260        N  0.01915138  0.99927228  0.60620368    -0.05810
N261        N  0.02121212  0.01379097  0.64647698    -0.58590
N262        N  0.49047068  0.46604239  0.60498635    -0.07120
N263        N  0.47257123  0.45681656  0.64418630    -0.61430
N264        N  0.05591572  0.47292258  0.53649623    -0.06110
N265        N  0.08008276  0.47052950  0.56051690    -0.58620
Mn266      Mn  0.47362822  0.43669087  0.54339519     1.20190
Mn267      Mn  0.05260191  0.02602584  0.54562262     1.10090
Cl268      Cl  0.99519691  0.00230668  0.50719020    -0.86590
C269        C  0.06443827  0.43494371  0.57825854     0.95750
C270        C  0.99169638  0.98727016  0.66916832     0.95540
C271        C  0.01120178  0.96956157  0.73301702    -0.12890
C272        C  0.99030642  0.98457676  0.71709010     0.04110
C273        C  0.47870657  0.00575592  0.74468760    -0.08180
C274        C  0.49201083  0.01484939  0.78774337    -0.08920
C275        C  0.51625111  0.50327400  0.80173446    -0.03470
C276        C  0.02543037  0.47981894  0.77458937     0.03340
N277        N  0.05169114  0.46919535  0.78677336     0.65850
H278        H  0.02017923  0.95380099  0.71068197     0.14750
H279        H  0.48363972  0.03086475  0.81032976     0.14460
N280        N  0.45409869  0.01805162  0.72957753     0.73550
O281        O  0.04699828  0.43604834  0.77921969    -0.39900
O282        O  0.08142206  0.49412412  0.79970390    -0.39840
O283        O  0.43828858  0.00581401  0.69340562    -0.40540
O284        O  0.44527397  0.03822011  0.75461430    -0.40610
C285        C  0.03698012  0.03718709  0.27395929    -0.12890
C286        C  0.01385431  0.50678621  0.30255860     0.04110
C287        C  0.49643551  0.46995563  0.28531330    -0.08180
C288        C  0.99410753  0.46538945  0.23914369    -0.08920
C289        C  0.01142404  0.99703186  0.21035846    -0.03470
C290        C  0.03731608  0.03199203  0.22705569     0.03340
N291        N  0.06482900  0.06076104  0.19792244     0.65850
H292        H  0.05312254  0.06500432  0.28776421     0.14750
H293        H  0.47662748  0.43764244  0.22614178     0.14460
N294        N  0.47848364  0.43749077  0.31457402     0.73550
O295        O  0.09126242  0.08776297  0.21516706    -0.39900
O296        O  0.06699758  0.05518948  0.15613714    -0.39840
O297        O  0.44572191  0.41538190  0.31078416    -0.40540
O298        O  0.49376925  0.43469265  0.34861913    -0.40610
C299        C  0.06915240  0.38492922  0.68708635    -0.12890
C300        C  0.09447921  0.41568157  0.71070625     0.04110
C301        C  0.10989365  0.45250447  0.69044514    -0.08180
C302        C  0.10012187  0.45714775  0.64710490    -0.08920
C303        C  0.07508508  0.42643757  0.62283844    -0.03470
C304        C  0.05920745  0.38989094  0.64382452     0.03340
N305        N  0.03453529  0.35701572  0.62095574     0.65850
H306        H  0.05809620  0.35652091  0.70147148     0.14750
H307        H  0.11192769  0.48550805  0.63251022     0.14460
N308        N  0.13551290  0.48558863  0.71316774     0.73550
O309        O  0.04156247  0.32999255  0.61457123    -0.39900
O310        O  0.00290699  0.35095393  0.61799635    -0.39840
O311        O  0.13627315  0.48600019  0.75569393    -0.40540
O312        O  0.15542170  0.51585334  0.69108515    -0.40610
C313        C  0.04479702  0.16123906  0.66391495    -0.12890
C314        C  0.06798470  0.15550968  0.63329328     0.04110
C315        C  0.10448273  0.17226957  0.64221323    -0.08180
C316        C  0.11640546  0.19252273  0.68210633    -0.08920
C317        C  0.09353141  0.19827287  0.71340012    -0.03470
C318        C  0.05716972  0.18339824  0.70305305     0.03340
N319        N  0.03272589  0.19158618  0.72985086     0.65850
H320        H  0.01658019  0.14740194  0.65815723     0.14750
H321        H  0.14441039  0.20440655  0.68842245     0.14460
N322        N  0.12980875  0.16849170  0.61135949     0.73550
O323        O  0.01105016  0.19909110  0.71054181    -0.39900
O324        O  0.02838179  0.18502351  0.77185912    -0.39660
O325        O  0.12664107  0.16842121  0.56919790    -0.40540
O326        O  0.15724152  0.16879423  0.62585926    -0.40610
C327        C  0.33124560  0.39311794  0.71282079    -0.12890
C328        C  0.31996548  0.41945088  0.72704011     0.04110
C329        C  0.32662078  0.44981631  0.69646161    -0.08180
C330        C  0.34360687  0.45234729  0.65317895    -0.08920
C331        C  0.35464702  0.42567814  0.63943144    -0.03470
C332        C  0.34770086  0.39535768  0.66987593     0.03340
N333        N  0.35613300  0.36560000  0.65733428     0.65850
H334        H  0.32570694  0.36913633  0.73459282     0.14750
H335        H  0.34949722  0.47620458  0.63092498     0.14460
N336        N  0.31648741  0.47834267  0.70834143     0.73550
O337        O  0.36793368  0.35181587  0.68602796    -0.39900
O338        O  0.34757950  0.34978375  0.61959057    -0.39840
O339        O  0.32720990  0.49696300  0.74400956    -0.40540
O340        O  0.30249063  0.48958190  0.67964321    -0.40610
C341        C  0.21128725  0.34623880  0.56141204    -0.12890
C342        C  0.17925719  0.33539673  0.54065207     0.04110
C343        C  0.14675970  0.32140522  0.56636140    -0.08180
C344        C  0.14809537  0.32605176  0.61297806    -0.08920
C345        C  0.18101081  0.34247417  0.63263578    -0.03470
C346        C  0.21271121  0.35082041  0.60751726     0.03340
N347        N  0.24662959  0.36597218  0.62778558     0.65850
H348        H  0.23610754  0.35544269  0.54157925     0.14750
H349        H  0.12376903  0.31670412  0.63398464     0.14460
N350        N  0.11299674  0.30197814  0.54580135     0.73550
O351        O  0.27008851  0.35769637  0.61207414    -0.39900
O352        O  0.25491702  0.39126984  0.65735932    -0.39840
O353        O  0.11002866  0.28256516  0.51088277    -0.40540
O354        O  0.08514111  0.29923388  0.56609223    -0.40610
C355        C  0.18283309  0.31584036  0.05438148    -0.12890
C356        C  0.17308188  0.34342787  0.04250448     0.04110
C357        C  0.17183239  0.36851401  0.07518366    -0.08180
C358        C  0.17245825  0.36013647  0.12046187    -0.08920
C359        C  0.17583037  0.32831792  0.13224433    -0.03470
C360        C  0.18270057  0.30682793  0.09943407     0.03340
N361        N  0.18463891  0.27300497  0.11094426     0.65850
H362        H  0.18553834  0.29759056  0.02896146     0.14750
H363        H  0.16948585  0.37773750  0.14654999     0.14460
N364        N  0.17048039  0.40227937  0.06278085     0.73550
O365        O  0.16293736  0.24978913  0.14031511    -0.39900
O366        O  0.20388216  0.26316805  0.08674379    -0.39840
O367        O  0.15587047  0.41627210  0.08931747    -0.40540
O368        O  0.19026095  0.42213469  0.02990631    -0.40610
C369        C  0.11018652  0.43806848  0.20074098    -0.12890
C370        C  0.09255029  0.39952981  0.21419165     0.04110
C371        C  0.06390068  0.37345934  0.18881509    -0.08180
C372        C  0.05552994  0.38597392  0.14954817    -0.08920
C373        C  0.07325403  0.42411297  0.13539528    -0.03470
C374        C  0.10032128  0.45112132  0.16224971     0.03340
N375        N  0.11689289  0.49146200  0.15270347     0.65850
H376        H  0.13163074  0.45805380  0.22054124     0.14750
H377        H  0.03362840  0.36566296  0.13052815     0.14460
N378        N  0.04204705  0.33434025  0.20299841     0.73550
O379        O  0.14560109  0.01379392  0.17050818    -0.39900
O380        O  0.10167737  0.50548260  0.12982847    -0.39840
O381        O  0.03136205  0.32600879  0.24391692    -0.40540
O382        O  0.02910651  0.30871106  0.17389157    -0.40610
C383        C  0.05195713  0.13543216  0.18454844    -0.12890
C384        C  0.07617127  0.14032966  0.14756512     0.04110
C385        C  0.11307072  0.16029831  0.15536117    -0.08180
C386        C  0.12423188  0.17480770  0.19897512    -0.08920
C387        C  0.09970016  0.17040221  0.23532525    -0.03470
C388        C  0.06299276  0.14928307  0.22792145     0.03340
N389        N  0.03645710  0.14073676  0.26427521     0.65850
H390        H  0.02359573  0.11938712  0.18028397     0.14750
H391        H  0.15249892  0.19129576  0.20383026     0.14460
N392        N  0.13962407  0.16675064  0.11988372     0.73550
O393        O  0.00606456  0.13660473  0.25632111    -0.39900
O394        O  0.04174893  0.13275717  0.30336727    -0.39840
O395        O  0.13872768  0.18126162  0.08260866    -0.40540
O396        O  0.16741445  0.16491958  0.12857277    -0.40610
C397        C  0.36083429  0.40799021  0.14603994    -0.12890
C398        C  0.35028347  0.42371470  0.11128051     0.04110
C399        C  0.32165150  0.43171438  0.12049777    -0.08180
C400        C  0.30420893  0.42311267  0.16401021    -0.08920
C401        C  0.31477920  0.40714710  0.19836162    -0.03470
C402        C  0.34373573  0.39983802  0.18940003     0.03340
N403        N  0.35609842  0.38417692  0.22374549     0.65850
H404        H  0.38357193  0.40317398  0.13982224     0.14750
H405        H  0.28102910  0.42710136  0.17055440     0.14460
N406        N  0.30901206  0.44693832  0.08606866     0.73550
O407        O  0.37347319  0.36686631  0.21272448    -0.39900
O408        O  0.35265848  0.39053170  0.26504643    -0.39840
O409        O  0.31286899  0.44087580  0.04477704    -0.40540
O410        O  0.29092270  0.46347935  0.09700818    -0.40610
C411        C  0.44556970  0.10575150  0.80154329    -0.12890
C412        C  0.40885585  0.09393438  0.80481194     0.04110
C413        C  0.39032022  0.07837599  0.84717180    -0.08180
C414        C  0.40830346  0.07425110  0.88375181    -0.08920
C415        C  0.44484963  0.08527851  0.88016426    -0.03470
C416        C  0.46369623  0.10200417  0.83826510     0.03340
N417        N  0.50142676  0.11608943  0.83223993     0.65850
H418        H  0.46060325  0.11846882  0.77013478     0.14750
H419        H  0.39323697  0.06173373  0.91520701     0.14460
N420        N  0.35311334  0.06660315  0.85415070     0.73550
O421        O  0.51411627  0.10706158  0.79769399    -0.39900
O422        O  0.52215393  0.14330100  0.85589040    -0.39840
O423        O  0.33059831  0.03598575  0.83731609    -0.40540
O424        O  0.34277529  0.08255272  0.88384830    -0.40610
C425        C  0.17317709  0.10889736  0.80721959    -0.12890
C426        C  0.18983245  0.08774914  0.79135484     0.04110
C427        C  0.19084591  0.06098278  0.82198464    -0.08180
C428        C  0.17557413  0.05653833  0.86646333    -0.08920
C429        C  0.15916090  0.07798045  0.88247417    -0.03470
C430        C  0.15747801  0.10414961  0.85144431     0.03340
N431        N  0.13840037  0.12481238  0.86254383     0.65850
H432        H  0.17171027  0.12911841  0.78446267     0.14750
H433        H  0.17690878  0.03611308  0.88904938     0.14460
N434        N  0.20808160  0.03870289  0.80969191     0.73550
O435        O  0.15151447  0.15911843  0.84982550    -0.39900
O436        O  0.10543673  0.10673302  0.87265719    -0.39840
O437        O  0.24148475  0.05491518  0.80300234    -0.40540
O438        O  0.19180127  0.00328412  0.81730424    -0.40610
C439        C  0.43915151  0.31996979  0.81085690    -0.12890
C440        C  0.40612035  0.31589380  0.79891035     0.04110
C441        C  0.39036554  0.33411164  0.82576092    -0.08180
C442        C  0.40742597  0.35481675  0.86398686    -0.08920
C443        C  0.44000547  0.35804807  0.87651722    -0.03470
C444        C  0.45597185  0.34018881  0.84946460     0.03340
N445        N  0.48824436  0.34057226  0.86189421     0.65850
H446        H  0.45117932  0.30568854  0.79116326     0.14750
H447        H  0.39532287  0.36902274  0.88368614     0.14460
N448        N  0.35793736  0.33345532  0.81393108     0.73550
O449        O  0.50982188  0.33964474  0.83178000    -0.39900
O450        O  0.49290935  0.33661559  0.90283506    -0.39840
O451        O  0.32911275  0.30262666  0.81611968    -0.40540
O452        O  0.35675025  0.36433258  0.81129408    -0.40610
C453        C  0.30071891  0.03678829  0.49387223    -0.12890
C454        C  0.27693839  0.03360170  0.53059386     0.04110
C455        C  0.23993054  0.51394759  0.52308217    -0.08180
C456        C  0.22819357  0.49769513  0.48025442    -0.08920
C457        C  0.25231973  0.50085092  0.44393312    -0.03470
C458        C  0.28907109  0.02118070  0.45133136     0.03340
N459        N  0.31516240  0.02552951  0.41619295     0.65850
H460        H  0.32918117  0.05187473  0.49792052     0.14750
H461        H  0.19984731  0.48181497  0.47567442     0.14460
N462        N  0.21386916  0.51032148  0.55791843     0.73550
O463        O  0.31296236  0.03561515  0.37670968    -0.39900
O464        O  0.34039810  0.51897315  0.42451226    -0.39840
O465        O  0.21503743  0.03970564  0.57555349    -0.40540
O466        O  0.18626072  0.47873607  0.56495844    -0.40610
C467        C  0.50119754  0.28009053  0.53779150    -0.12890
C468        C  0.49703991  0.24724595  0.56024354     0.04110
C469        C  0.00837726  0.22360622  0.53639875    -0.08180
C470        C  0.02528955  0.23427967  0.49288900    -0.08920
C471        C  0.03140723  0.26839494  0.47222280    -0.03470
C472        C  0.01790153  0.29081216  0.49431785     0.03340
N473        N  0.52036722  0.32421256  0.47273692     0.65850
H474        H  0.49049022  0.29721689  0.55360402     0.14750
H475        H  0.03577816  0.21707351  0.47656676     0.14460
N476        N  0.00426891  0.18936671  0.55649392     0.73550
O477        O  0.52195335  0.35143453  0.49620070    -0.39900
O478        O  0.01709884  0.32494332  0.43067151    -0.39840
O479        O  0.48724778  0.15805007  0.53708235    -0.40540
O480        O  0.02161498  0.19117310  0.59039741    -0.40610
C481        C  0.29336637  0.28359543  0.52991919    -0.12890
C482        C  0.27625827  0.24485863  0.54127441     0.04110
C483        C  0.24957296  0.21887039  0.51303640    -0.08180
C484        C  0.24112562  0.23342023  0.47451283    -0.08920
C485        C  0.25865884  0.27245982  0.46334188    -0.03470
C486        C  0.28547181  0.29768590  0.49160281     0.03340
N487        N  0.30658078  0.33755506  0.48087621     0.65850
H488        H  0.31456911  0.30328720  0.55029926     0.14750
H489        H  0.22055420  0.21423330  0.45306030     0.14460
N490        N  0.23148307  0.17822112  0.52152228     0.73550
O491        O  0.31437283  0.36162232  0.51192527    -0.39900
O492        O  0.32251163  0.34818099  0.44243519    -0.39840
O493        O  0.23932404  0.16359667  0.55370739    -0.40540
O494        O  0.20740985  0.15636326  0.49625668    -0.40610
C495        C  0.34325561  0.20129724  0.94344072    -0.12890
C496        C  0.32575502  0.17058272  0.97347202     0.04110
C497        C  0.29840878  0.13553101  0.95931871    -0.08180
C498        C  0.29406896  0.13016759  0.91299329    -0.08920
C499        C  0.31374443  0.16022798  0.88267080    -0.03470
C500        C  0.33719681  0.19660844  0.89802316     0.03340
N501        N  0.35643673  0.22860890  0.86799469     0.65850
H502        H  0.36330311  0.22861211  0.95485506     0.14750
H503        H  0.27425293  0.10321670  0.90044793     0.14460
N504        N  0.27313491  0.10703895  0.99072830     0.73550
O505        O  0.35825039  0.26018657  0.87810229    -0.39900
O506        O  0.37638788  0.22709063  0.83601830    -0.39840
O507        O  0.27021717  0.11507121  0.03150139    -0.40540
O508        O  0.24849374  0.07694283  0.97569443    -0.40610
C509        C  0.29555297  0.15236050  0.42216065    -0.12890
C510        C  0.31650702  0.17621690  0.38610545     0.04110
C511        C  0.35285574  0.20301785  0.39144133    -0.08180
C512        C  0.36697501  0.20362496  0.43304804    -0.08920
C513        C  0.34679898  0.17782079  0.46763069    -0.03470
C514        C  0.31018123  0.15276967  0.46343979     0.03340
N515        N  0.28760163  0.12793649  0.49993214     0.65850
H516        H  0.26785691  0.13238146  0.41737854     0.14750
H517        H  0.39465454  0.22341732  0.43823138     0.14460
N518        N  0.37692039  0.22684231  0.35496760     0.73550
O519        O  0.25874515  0.09894325  0.49154685    -0.39900
O520        O  0.29406062  0.13686282  0.54067374    -0.39840
O521        O  0.36897589  0.22088463  0.31421818    -0.40540
O522        O  0.40847481  0.25094014  0.36293781    -0.40610
C523        C  0.39828095  0.10177319  0.39413015    -0.12890
C524        C  0.41680392  0.08103630  0.39139374     0.04110
C525        C  0.42395714  0.07006877  0.34787635    -0.08180
C526        C  0.41292581  0.08046069  0.30861349    -0.08920
C527        C  0.39270606  0.09951636  0.31176660    -0.03470
C528        C  0.38567563  0.11024090  0.35523991     0.03340
N529        N  0.36481308  0.12912939  0.36066307     0.65850
H530        H  0.39240687  0.11031749  0.42694447     0.14750
H531        H  0.41756175  0.07072420  0.27594118     0.14460
N532        N  0.43907850  0.04514712  0.34295289     0.73550
O533        O  0.34075155  0.11876835  0.39188864    -0.39900
O534        O  0.36978290  0.15544999  0.33348451    -0.39840
O535        O  0.42061580  0.01121755  0.35681199    -0.40540
O536        O  0.46395018  0.05287381  0.31329676    -0.40610
C537        C  0.15703154  0.11452139  0.36518866    -0.12890
C538        C  0.13376201  0.07642082  0.37603900     0.04110
C539        C  0.12704744  0.04876917  0.34224706    -0.08180
C540        C  0.14546724  0.06040693  0.29939393    -0.08920
C541        C  0.16899262  0.09885521  0.28847472    -0.03470
C542        C  0.17439191  0.12635377  0.32235160     0.03340
N543        N  0.19748321  0.16636866  0.31513202     0.65850
H544        H  0.16099819  0.13579981  0.39041739     0.14750
H545        H  0.14127845  0.03922702  0.27401871     0.14460
N546        N  0.10088901  0.00942176  0.34974704     0.73550
O547        O  0.18869535  0.18974682  0.33275545    -0.39900
O548        O  0.22975547  0.17815209  0.30338598    -0.39840
O549        O  0.09184214  0.99523166  0.38917996    -0.40540
O550        O  0.08786998  0.48801371  0.31669013    -0.40610
C551        C  0.37466145  0.30230012  0.34720780    -0.12890
C552        C  0.39591901  0.31102840  0.30654402     0.04110
C553        C  0.43309702  0.33490424  0.30830051    -0.08180
C554        C  0.44743953  0.34935969  0.35036045    -0.08920
C555        C  0.42537598  0.34439015  0.38920813    -0.03470
C556        C  0.38893270  0.31785656  0.38866099     0.03340
N557        N  0.36626569  0.30578238  0.42964969     0.65850
H558        H  0.34648487  0.28267654  0.34693241     0.14750
H559        H  0.47566043  0.36813654  0.35169211     0.14460
N560        N  0.45605866  0.34845874  0.26794830     0.73550
O561        O  0.33449948  0.27958269  0.42848081    -0.39900
O562        O  0.37891578  0.31705606  0.46778767    -0.39840
O563        O  0.44614718  0.35956922  0.23437886    -0.40540
O564        O  0.48868626  0.35804343  0.26967669    -0.40610
C565        C  0.27809403  0.01905685  0.01925508    -0.12890
C566        C  0.25641259  0.02638687  0.05107449     0.04110
C567        C  0.22057087  0.01419188  0.04119573    -0.08180
C568        C  0.20791681  0.49593077  0.00007574    -0.08920
C569        C  0.22950790  0.48827206  0.96855617    -0.03470
C570        C  0.26505199  0.49958067  0.97890428     0.03340
N571        N  0.28772087  0.48971510  0.95074045     0.65850
H572        H  0.30545992  0.02762647  0.02651981     0.14750
H573        H  0.18057249  0.48740469  0.99268456     0.14460
N574        N  0.19690729  0.02150248  0.07073869     0.73550
O575        O  0.32050474  0.51290976  0.94528194    -0.39900
O576        O  0.27687856  0.45564281  0.93932116    -0.39840
O577        O  0.20595131  0.05489123  0.08358791    -0.40540
O578        O  0.16457787  0.99671292  0.07560127    -0.40610
C579        C  0.99704182  0.28272113  0.04289416    -0.12890
C580        C  0.47797501  0.24434610  0.05670133     0.04110
C581        C  0.47562619  0.21650012  0.02484549    -0.08180
C582        C  0.49264613  0.22766771  0.98138437    -0.08920
C583        C  0.01159969  0.26603337  0.96751677    -0.03470
C584        C  0.01404234  0.29391725  0.99943098     0.03340
N585        N  0.03516567  0.33381282  0.98975231     0.65850
H586        H  0.99925341  0.30449768  0.06648809     0.14750
H587        H  0.49044559  0.20587930  0.95781673     0.14460
N588        N  0.45454126  0.17665021  0.03462500     0.73550
O589        O  0.02198610  0.35574921  0.99780270    -0.39900
O590        O  0.06854823  0.34790394  0.98433898    -0.39840
O591        O  0.42106138  0.16227996  0.03826215    -0.40540
O592        O  0.46822563  0.15496628  0.02847596    -0.40610
C593        C  0.23427100  0.22227994  0.02641027    -0.12890
C594        C  0.26237404  0.25308849  0.04640946     0.04110
C595        C  0.27590341  0.28992547  0.02664751    -0.08180
C596        C  0.26105179  0.29463033  0.98715274    -0.08920
C597        C  0.23269025  0.26382290  0.96744216    -0.03470
C598        C  0.21941669  0.22710143  0.98715093     0.03340
N599        N  0.19202091  0.19421685  0.96663597     0.65850
H600        H  0.22461359  0.19403189  0.04069110     0.14750
H601        H  0.27044928  0.32285954  0.97294339     0.14460
N602        N  0.30323697  0.32300961  0.04725867     0.73550
O603        O  0.17153448  0.16525301  0.99047512    -0.39900
O604        O  0.19135010  0.19203782  0.92415528    -0.39840
O605        O  0.30573715  0.32432766  0.08960450    -0.40540
O606        O  0.32208911  0.35280045  0.02384837    -0.40610
N607        N  0.35750344  0.66879526  0.07872587    -0.06740
N608        N  0.34455031  0.65086264  0.04115985    -0.58860
N609        N  0.41470822  0.73100420  0.14530988    -0.06420
N610        N  0.44218438  0.75482618  0.11882885    -0.60990
N611        N  0.41386963  0.69742074  0.14606822    -0.06020
N612        N  0.44073085  0.69905381  0.11994765    -0.58840
N613        N  0.35953097  0.70268726  0.07796463    -0.05700
N614        N  0.34829726  0.70873022  0.04016706    -0.61340
C615        C  0.33889629  0.67622926  0.01803816     0.95430
C616        C  0.45777431  0.73455903  0.10205079     0.95210
N617        N  0.33679621  0.75104494  0.22684030    -0.06930
N618        N  0.34240059  0.76825747  0.26586598    -0.59440
N619        N  0.31775046  0.73955785  0.12091624    -0.05050
N620        N  0.31378064  0.75328679  0.08249800    -0.60690
N621        N  0.28761671  0.72394582  0.14552364    -0.06960
N622        N  0.26235887  0.72667578  0.12404611    -0.59710
N623        N  0.36693710  0.76291278  0.20268038    -0.04690
N624        N  0.39377349  0.78812542  0.22552059    -0.60780
Mn625      Mn  0.36552988  0.73515229  0.13783204     1.18440
C626        C  0.37784560  0.79149782  0.26499682     0.97520
C627        C  0.27934537  0.74539671  0.08477096     0.98180
N628        N  0.36414250  0.62035887  0.20884966    -0.06980
N629        N  0.39008181  0.61899017  0.23052473    -0.63290
N630        N  0.28429689  0.57955658  0.15301458    -0.05780
N631        N  0.25784767  0.55227810  0.13129627    -0.63960
N632        N  0.31408955  0.59247428  0.12790183    -0.06480
N633        N  0.30874376  0.57453734  0.08930978    -0.63550
N634        N  0.33461559  0.60618775  0.23487429    -0.05380
N635        N  0.33985045  0.59512970  0.27431680    -0.64240
Mn636      Mn  0.36313144  0.64429634  0.14135559     1.10660
C637        C  0.37436081  0.60308420  0.27159911     0.98740
C638        C  0.27375848  0.54952541  0.09129358     0.98820
N639        N  0.23708651  0.64596133  0.20477733    -0.06490
N640        N  0.20828291  0.64373165  0.22661094    -0.61860
N641        N  0.28965732  0.64185304  0.27887125    -0.05810
N642        N  0.29615083  0.63550845  0.31997301    -0.58590
N643        N  0.29074802  0.67523583  0.27632705    -0.07120
N644        N  0.29835397  0.69249936  0.31540621    -0.61430
N645        N  0.23662187  0.61263454  0.20758821    -0.06110
N646        N  0.20776950  0.58849808  0.23168860    -0.58620
Mn647      Mn  0.28736544  0.69940981  0.21236341     1.20190
Mn648      Mn  0.28571267  0.60881929  0.21802507     1.10090
Cl649      Cl  0.32552916  0.67188351  0.17768407    -0.86590
C650        C  0.19065035  0.60824270  0.24454391     0.95750
C651        C  0.30134080  0.66725254  0.34213706     0.95540
N652        N  0.30228125  0.57641303  0.64023875    -0.06740
N653        N  0.27630855  0.55202871  0.61503143    -0.58860
N654        N  0.38101292  0.61640287  0.70110876    -0.06420
N655        N  0.40695383  0.61617989  0.72408010    -0.60990
N656        N  0.35100887  0.60081524  0.72600556    -0.06020
N657        N  0.35595698  0.59006292  0.76588349    -0.58840
N658        N  0.33273491  0.59095269  0.61629824    -0.05700
N659        N  0.32821386  0.57686678  0.57536513    -0.61340
C660        C  0.29311290  0.55256715  0.57421453     0.95430
C661        C  0.39077648  0.59933009  0.76477763     0.95210
N662        N  0.43036516  0.72898062  0.64552545    -0.06930
N663        N  0.45877326  0.75445458  0.62186365    -0.59440
N664        N  0.37768317  0.66974804  0.57163185    -0.05050
N665        N  0.36734805  0.65472693  0.53169650    -0.60690
N666        N  0.37962025  0.70357390  0.57328926    -0.06960
N667        N  0.37152171  0.71270479  0.53492895    -0.59710
N668        N  0.43025625  0.69573663  0.64425164    -0.04690
N669        N  0.45839577  0.69922287  0.61953900    -0.60780
Mn670      Mn  0.38094810  0.64241640  0.63422065     1.18440
C671        C  0.47572385  0.73562584  0.60470457     0.97520
C672        C  0.36406375  0.68228432  0.50953432     0.98180
N673        N  0.30403873  0.63312742  0.77043884    -0.06980
N674        N  0.30690582  0.62464443  0.81232835    -0.63290
N675        N  0.25119790  0.63694865  0.70031472    -0.05780
N676        N  0.22421125  0.63336846  0.72780513    -0.63960
N677        N  0.25189100  0.60407650  0.69961080    -0.06480
N678        N  0.22528222  0.57895365  0.72618288    -0.63550
N679        N  0.30310520  0.66553193  0.76896063    -0.05380
N680        N  0.30498222  0.67977221  0.80917471    -0.64240
Mn681      Mn  0.30199168  0.60232630  0.70807162     1.10660
C682        C  0.30744780  0.65414359  0.83551537     0.98740
C683        C  0.20880223  0.59756663  0.74501458     0.98820
N684        N  0.33159846  0.73279916  0.61695781    -0.06490
N685        N  0.32700566  0.74441450  0.57753812    -0.61860
N686        N  0.34919843  0.74455429  0.72494030    -0.05810
N687        N  0.35339515  0.76363783  0.76279882    -0.58590
N688        N  0.37949571  0.75842010  0.70074121    -0.07120
N689        N  0.40484679  0.78726941  0.72177789    -0.61430
N690        N  0.30122639  0.71632246  0.64110633    -0.06110
N691        N  0.27534749  0.71675952  0.61848410    -0.58620
Mn692      Mn  0.38085414  0.73194247  0.63543120     1.20190
Mn693      Mn  0.30078588  0.69144308  0.70753508     1.10090
Cl694      Cl  0.34115557  0.66701374  0.67146988    -0.86590
C695        C  0.29197038  0.73400720  0.57843150     0.95750
C696        C  0.38800489  0.79058120  0.76045129     0.95540
N697        N  0.17529444  0.87037518  0.43515426    -0.06740
N698        N  0.15907575  0.85578744  0.47458883    -0.58860
N699        N  0.23269593  0.93121198  0.35990795    -0.06420
N700        N  0.25670676  0.96035874  0.38183610    -0.60990
N701        N  0.20155620  0.93096218  0.36490677    -0.06020
N702        N  0.20486188  0.95948117  0.39116506    -0.58840
N703        N  0.20661218  0.87152728  0.43171194    -0.05700
N704        N  0.21232410  0.85771176  0.46831074    -0.61340
C705        C  0.18252614  0.84772090  0.49433843     0.95430
C706        C  0.23930816  0.97765563  0.40190125     0.95210
N707        N  0.24924591  0.84726535  0.27947265    -0.06930
N708        N  0.26647833  0.85226627  0.23987715    -0.59440
N709        N  0.23936409  0.82696115  0.38690172    -0.05050
N710        N  0.25295173  0.82369372  0.42431564    -0.60690
N711        N  0.22517369  0.79457202  0.36552570    -0.06960
N712        N  0.22952385  0.76858062  0.38827632    -0.59710
N713        N  0.26141962  0.87950631  0.30121005    -0.04690
N714        N  0.28755908  0.90727322  0.27658529    -0.60780
Mn715      Mn  0.23597371  0.87821394  0.36852478     1.18440
C716        C  0.29019648  0.88949145  0.23833179     0.97520
C717        C  0.24727502  0.78764582  0.42508509     0.98180
N718        N  0.12788585  0.87796105  0.31048015    -0.06980
N719        N  0.12285560  0.90383013  0.28847395    -0.63290
N720        N  0.08994422  0.79305405  0.37331967    -0.05780
N721        N  0.06149459  0.76632130  0.39613747    -0.63960
N722        N  0.10268513  0.82509795  0.39542150    -0.06480
N723        N  0.08365879  0.82111345  0.43322139    -0.63550
N724        N  0.11475391  0.84606223  0.28798398    -0.05380
N725        N  0.10146754  0.84959863  0.25050701    -0.64240
Mn726      Mn  0.15149047  0.87703213  0.37552697     1.10660
C727        C  0.10592265  0.88517211  0.25099500     0.98740
C728        C  0.05794270  0.78469530  0.43345904     0.98820
N729        N  0.15046031  0.74106369  0.31284438    -0.06490
N730        N  0.14685514  0.71198769  0.28755948    -0.61860
N731        N  0.14644492  0.79966491  0.24306275    -0.05810
N732        N  0.14087483  0.81060962  0.20401675    -0.58590
N733        N  0.17717071  0.79945787  0.24124612    -0.07120
N734        N  0.19325647  0.81004680  0.20106270    -0.61430
N735        N  0.11939277  0.74107750  0.31720646    -0.06110
N736        N  0.09513447  0.71139457  0.29623421    -0.58620
Mn737      Mn  0.20088798  0.79468002  0.30103859     1.20190
Mn738      Mn  0.11670203  0.79419622  0.30654781     1.10090
Cl739      Cl  0.17622669  0.83600779  0.33792412    -0.86590
C740        C  0.11237064  0.69355251  0.27721868     0.95750
C741        C  0.17021606  0.81676966  0.17870468     0.95540
N742        N  0.20332951  0.79203605  0.87116038    -0.06740
N743        N  0.22977431  0.79055271  0.89118473    -0.58860
N744        N  0.12212134  0.75062390  0.81602299    -0.06420
N745        N  0.09539562  0.72433935  0.79375509    -0.60990
N746        N  0.15189210  0.76420972  0.79074155    -0.06020
N747        N  0.14601156  0.74762086  0.75120739    -0.58840
N748        N  0.17367651  0.77514863  0.89658952    -0.05700
N749        N  0.17923732  0.76172261  0.93424512    -0.61340
C750        C  0.21413453  0.77123704  0.93057363     0.95430
C751        C  0.11084317  0.72280941  0.75294768     0.95210
N752        N  0.07392301  0.81340481  0.87656882    -0.06930
N753        N  0.04724215  0.81118396  0.90349854    -0.59440
N754        N  0.13069403  0.81005430  0.94210245    -0.05050
N755        N  0.14493632  0.80508421  0.97766661    -0.60690
N756        N  0.13174845  0.84352217  0.94264906    -0.06960
N757        N  0.14695914  0.86192244  0.97924699    -0.59710
N758        N  0.07400057  0.78028063  0.87715557    -0.04690
N759        N  0.04734924  0.75620625  0.90455644    -0.60780
Mn760      Mn  0.12426103  0.77779794  0.88194475     1.18440
C761        C  0.03127857  0.77586859  0.92182458     0.97520
C762        C  0.15526766  0.83751045  0.00027300     0.98180
N763        N  0.19548053  0.84013638  0.74436422    -0.06980
N764        N  0.18823080  0.82274478  0.70574525    -0.63290
N765        N  0.25044822  0.90387393  0.80894799    -0.05780
N766        N  0.27814122  0.92840437  0.78323414    -0.63960
N767        N  0.25111149  0.87110234  0.81136237    -0.06480
N768        N  0.27966473  0.87424662  0.78790361    -0.63550
N769        N  0.19428740  0.87231679  0.74230129    -0.05380
N770        N  0.18608032  0.87767570  0.70179294    -0.64240
Mn771      Mn  0.20125462  0.81652994  0.80564259     1.10660
C772        C  0.18193670  0.84612405  0.68021121     0.98740
C773        C  0.29625402  0.90982602  0.76977852     0.98820
N774        N  0.17215357  0.92054360  0.89308158    -0.06490
N775        N  0.17740541  0.93867101  0.93151573    -0.61860
N776        N  0.15073933  0.90653745  0.78733531    -0.05810
N777        N  0.14570440  0.91792882  0.74810897    -0.58590
N778        N  0.12092540  0.89054189  0.81268239    -0.07120
N779        N  0.09466848  0.89072064  0.79035791    -0.61430
N780        N  0.20174036  0.93437319  0.86742375    -0.06110
N781        N  0.22794843  0.96245645  0.88849662    -0.58620
Mn782      Mn  0.12376540  0.86745209  0.88041969     1.20190
Mn783      Mn  0.19998883  0.90555284  0.80239329     1.10090
Cl784      Cl  0.16237596  0.84190803  0.84275642    -0.86590
C785        C  0.21209897  0.96470023  0.92876557     0.95750
C786        C  0.11095468  0.90828261  0.75002709     0.95540
N787        N  0.46894860  0.91287397  0.97656476    -0.06740
N788        N  0.44256590  0.88570772  0.95482199    -0.58860
N789        N  0.04867990  0.95223967  0.03475382    -0.06420
N790        N  0.07456715  0.95175673  0.05742506    -0.60990
N791        N  0.01829509  0.93554390  0.05882638    -0.06020
N792        N  0.02270890  0.92333648  0.09789014    -0.58840
N793        N  0.49893455  0.92617273  0.95179448    -0.05700
N794        N  0.49361061  0.90839098  0.91284037    -0.61340
C795        C  0.45852570  0.88299353  0.91502648     0.95430
C796        C  0.05767035  0.93372763  0.09709854     0.95210
N797        N  0.09939618  0.56471767  0.97635297    -0.06930
N798        N  0.12588158  0.58894232  0.94884696    -0.59440
N799        N  0.04419064  0.00467905  0.90925916    -0.05050
N800        N  0.53479384  0.98763808  0.87080281    -0.60690
N801        N  0.04384478  0.53741857  0.90888084    -0.06960
N802        N  0.03402454  0.54330268  0.86958127    -0.59710
N803        N  0.09890450  0.53124772  0.97539413    -0.04690
N804        N  0.12495351  0.53352075  0.94703159    -0.60780
Mn805      Mn  0.04837384  0.97810067  0.96907795     1.18440
C806        C  0.14098452  0.56914223  0.92934930     0.97520
C807        C  0.52918065  0.01215304  0.84641812     0.98180
N808        N  0.97489189  0.96851721  0.10550537    -0.06980
N809        N  0.98706922  0.96126435  0.14188363    -0.63290
N810        N  0.42193680  0.97727633  0.03594156    -0.05780
N811        N  0.39237322  0.97334992  0.05738437    -0.63960
N812        N  0.42135279  0.94388943  0.03399692    -0.06480
N813        N  0.39141455  0.91770040  0.05405447    -0.63550
N814        N  0.97699035  0.50246600  0.10732407    -0.05380
N815        N  0.99118291  0.51912353  0.14517847    -0.64240
Mn816      Mn  0.46996976  0.93903623  0.04280837     1.10660
C817        C  0.99752955  0.49309616  0.16580135     0.98740
C818        C  0.37350226  0.93616885  0.06892476     0.98820
N819        N  0.50132826  0.57255051  0.95577137    -0.06490
N820        N  0.49670964  0.58514943  0.91697771    -0.61860
N821        N  0.02069956  0.58087638  0.06326031    -0.05810
N822        N  0.02517373  0.59625817  0.10338892    -0.58590
N823        N  0.05117244  0.59447640  0.03947842    -0.07120
N824        N  0.07720760  0.61937586  0.06416990    -0.61430
N825        N  0.47145812  0.55726696  0.98088960    -0.06110
N826        N  0.44598960  0.55976473  0.95930939    -0.58620
Mn827      Mn  0.04969849  0.56866397  0.97121676     1.20190
Mn828      Mn  0.47187690  0.52995797  0.04625055     1.10090
Cl829      Cl  0.01006928  0.50403674  0.00730587    -0.86590
C830        C  0.46235965  0.57763678  0.91911828     0.95750
C831        C  0.06028481  0.62040409  0.10430232     0.95540
N832        N  0.00056269  0.53881195  0.40880497    -0.06740
N833        N  0.02061570  0.54554367  0.37114053    -0.58860
N834        N  0.43455569  0.53127575  0.47547856    -0.06420
N835        N  0.41124096  0.53379134  0.44978811    -0.60990
N836        N  0.46363409  0.56481063  0.47623241    -0.06020
N837        N  0.45964455  0.58944872  0.45051000    -0.58840
N838        N  0.47220774  0.00518566  0.40803896    -0.05700
N839        N  0.47246859  0.98848578  0.36990231    -0.61340
C840        C  0.00284778  0.01368569  0.34753312     0.95430
C841        C  0.42701059  0.56989849  0.43408909     0.95210
N842        N  0.42207398  0.93447876  0.55832580    -0.06930
N843        N  0.40453663  0.92229588  0.59754525    -0.59440
N844        N  0.44087174  0.92512658  0.45264371    -0.05050
N845        N  0.42870880  0.90433286  0.41658150    -0.60690
N846        N  0.45571422  0.91042818  0.47815110    -0.06960
N847        N  0.45365500  0.87899068  0.46012803    -0.59710
N848        N  0.40845883  0.95171861  0.53478897    -0.04690
N849        N  0.38090315  0.95145718  0.55858710    -0.60780
Mn850      Mn  0.43773869  0.97791195  0.46837641     1.18440
C851        C  0.37866713  0.93231268  0.59780055     0.97520
C852        C  0.43696280  0.87593876  0.42136084     0.98180
N853        N  0.03495748  0.59381191  0.53934855    -0.06980
N854        N  0.03769630  0.62462972  0.56038272    -0.63290
N855        N  0.08133882  0.55266662  0.48020466    -0.05780
N856        N  0.10783924  0.55126985  0.45606249    -0.63960
N857        N  0.06850602  0.57091058  0.45706527    -0.06480
N858        N  0.08564473  0.58229001  0.41746546    -0.63550
N859        N  0.04923380  0.57753261  0.56335680    -0.05380
N860        N  0.06109036  0.59591158  0.60092018    -0.64240
Mn861      Mn  0.01694398  0.56843035  0.47181153     1.10660
C862        C  0.05375955  0.62500113  0.59927047     0.98740
C863        C  0.10977284  0.56985159  0.41674356     0.98820
N864        N  0.02668601  0.93960758  0.53755408    -0.06490
N865        N  0.03125524  0.91543481  0.56338505    -0.61860
N866        N  0.01907825  0.49924663  0.60625275    -0.05810
N867        N  0.02111607  0.51375742  0.64652835    -0.58590
N868        N  0.49053790  0.96607151  0.60495460    -0.07120
N869        N  0.47265640  0.95685524  0.64416750    -0.61430
N870        N  0.05596237  0.97293141  0.53644010    -0.06110
N871        N  0.08013078  0.97053691  0.56045690    -0.58620
Mn872      Mn  0.47367509  0.93670921  0.54336937     1.20190
Mn873      Mn  0.05254723  0.52601166  0.54568050     1.10090
Cl874      Cl  0.99515246  0.50229257  0.50722536    -0.86590
C875        C  0.06448428  0.93495314  0.57820552     0.95750
C876        C  0.99159254  0.48722773  0.66920033     0.95540
C877        C  0.01103255  0.46945144  0.73305700    -0.12890
C878        C  0.99018148  0.48451849  0.71712297     0.04110
C879        C  0.47863355  0.50574537  0.74471045    -0.08180
C880        C  0.49196230  0.51484928  0.78775277    -0.08920
C881        C  0.51632722  0.00331510  0.80172686    -0.03470
C882        C  0.02557196  0.97992071  0.77456490     0.03340
N883        N  0.05186123  0.96934376  0.78676036     0.65850
H884        H  0.01996833  0.45365102  0.71072915     0.14750
H885        H  0.48363437  0.53090759  0.81032707     0.14460
N886        N  0.45405264  0.51807759  0.72959927     0.73550
O887        O  0.04721499  0.93621521  0.77919718    -0.39900
O888        O  0.08156356  0.99429283  0.79974382    -0.39840
O889        O  0.43820135  0.50581085  0.69345981    -0.40540
O890        O  0.44528527  0.53830322  0.75461305    -0.40610
C891        C  0.03692032  0.53717644  0.27397179    -0.12890
C892        C  0.01391291  0.00679671  0.30254555     0.04110
C893        C  0.49651303  0.96996310  0.28530701    -0.08180
C894        C  0.99419802  0.96538975  0.23913712    -0.08920
C895        C  0.01134326  0.49703220  0.21036794    -0.03470
C896        C  0.03724613  0.53198629  0.22706641     0.03340
N897        N  0.06476125  0.56075300  0.19793258     0.65850
H898        H  0.05307317  0.56498982  0.28777963     0.14750
H899        H  0.47672697  0.93763890  0.22613791     0.14460
N900        N  0.47855574  0.93750263  0.31457229     0.73550
O901        O  0.09119787  0.58775134  0.21517650    -0.39900
O902        O  0.06692754  0.55518210  0.15614677    -0.39840
O903        O  0.44578942  0.91541050  0.31079225    -0.40540
O904        O  0.49383551  0.93470938  0.34862641    -0.40610
C905        C  0.06918577  0.88494978  0.68705085    -0.12890
C906        C  0.09452065  0.91570210  0.71066198     0.04110
C907        C  0.10994770  0.95252054  0.69038634    -0.08180
C908        C  0.10017927  0.95715997  0.64704252    -0.08920
C909        C  0.07513254  0.92644996  0.62278622    -0.03470
C910        C  0.05924402  0.88990761  0.64378522     0.03340
N911        N  0.03456316  0.85703158  0.62092618     0.65850
H912        H  0.05812007  0.85654388  0.70144612     0.14750
H913        H  0.11199450  0.98551762  0.63243810     0.14460
N914        N  0.13557528  0.98560463  0.71309949     0.73550
O915        O  0.04158223  0.83000233  0.61454562    -0.39900
O916        O  0.00293602  0.85097620  0.61797571    -0.39840
O917        O  0.13632229  0.98603251  0.75562718    -0.40540
O918        O  0.15550365  0.01585582  0.69100415    -0.40610
C919        C  0.04475896  0.66123628  0.66396061    -0.12890
C920        C  0.06793835  0.65550672  0.63332484     0.04110
C921        C  0.10444082  0.67227398  0.64222249    -0.08180
C922        C  0.11637633  0.69253453  0.68210852    -0.08920
C923        C  0.09351070  0.69828673  0.71341492    -0.03470
C924        C  0.05714462  0.68340829  0.70308652     0.03340
N925        N  0.03270993  0.69160996  0.72988508     0.65850
H926        H  0.01653859  0.64739003  0.65822382     0.14750
H927        H  0.14438419  0.70442173  0.68840910     0.14460
N928        N  0.12975787  0.66849306  0.61135524     0.73550
O929        O  0.01103287  0.69911317  0.71057666    -0.39900
O930        O  0.02837695  0.68506642  0.77189698    -0.39660
O931        O  0.12657182  0.66840801  0.56919670    -0.40540
O932        O  0.15719967  0.66880558  0.62583837    -0.40610
C933        C  0.33127685  0.89312406  0.71280239    -0.12890
C934        C  0.31998533  0.91944945  0.72701515     0.04110
C935        C  0.32663829  0.94981280  0.69643419    -0.08180
C936        C  0.34363442  0.95235017  0.65315698    -0.08920
C937        C  0.35468802  0.92569019  0.63941662    -0.03470
C938        C  0.34774352  0.89537094  0.66986258     0.03340
N939        N  0.35618880  0.86562150  0.65732721     0.65850
H940        H  0.32574033  0.86914412  0.73457633     0.14750
H941        H  0.34952162  0.97620581  0.63090172     0.14460
N942        N  0.31649174  0.97833062  0.70830539     0.73550
O943        O  0.36799113  0.85184418  0.68602702    -0.39900
O944        O  0.34764462  0.84980414  0.61958254    -0.39840
O945        O  0.32721310  0.99696111  0.74396722    -0.40540
O946        O  0.30248652  0.98955532  0.67960253    -0.40610
C947        C  0.21128136  0.84617193  0.56140533    -0.12890
C948        C  0.17925065  0.83533406  0.54064866     0.04110
C949        C  0.14675684  0.82135992  0.56636270    -0.08180
C950        C  0.14809989  0.82602784  0.61297592    -0.08920
C951        C  0.18101859  0.84245527  0.63262585    -0.03470
C952        C  0.21271352  0.85077960  0.60750667     0.03340
N953        N  0.24663503  0.86593693  0.62776857     0.65850
H954        H  0.23609798  0.85535974  0.54156943     0.14750
H955        H  0.12377696  0.81669395  0.63398593     0.14460
N956        N  0.11299048  0.80193315  0.54581013     0.73550
O957        O  0.27008953  0.85765132  0.61206522    -0.39900
O958        O  0.25492969  0.89124822  0.65732600    -0.39840
O959        O  0.11001657  0.78251892  0.51089114    -0.40540
O960        O  0.08513810  0.79919316  0.56610587    -0.40610
C961        C  0.18283311  0.81587302  0.05438609    -0.12890
C962        C  0.17307731  0.84345812  0.04251366     0.04110
C963        C  0.17181129  0.86853086  0.07520100    -0.08180
C964        C  0.17243301  0.86014413  0.12047781    -0.08920
C965        C  0.17581237  0.82832810  0.13225238    -0.03470
C966        C  0.18268992  0.80684765  0.09943649     0.03340
N967        N  0.18462395  0.77302031  0.11093723     0.65850
H968        H  0.18554875  0.79763268  0.02896113     0.14750
H969        H  0.16945128  0.87773583  0.14657104     0.14460
N970        N  0.17044171  0.90228927  0.06280975     0.73550
O971        O  0.16291594  0.74979781  0.14029794    -0.39900
O972        O  0.20386808  0.76318614  0.08673457    -0.39840
O973        O  0.15581748  0.91626304  0.08935200    -0.40540
O974        O  0.19021782  0.92215839  0.02994022    -0.40610
C975        C  0.11021324  0.93806479  0.20074622    -0.12890
C976        C  0.09256530  0.89953012  0.21421287     0.04110
C977        C  0.06391000  0.87345933  0.18884493    -0.08180
C978        C  0.05554569  0.88596799  0.14956908    -0.08920
C979        C  0.07328002  0.92410302  0.13540051    -0.03470
C980        C  0.10035313  0.95111324  0.16224674     0.03340
N981        N  0.11693546  0.99145198  0.15268462     0.65850
H982        H  0.13166250  0.95805015  0.22053994     0.14750
H983        H  0.03364009  0.86565645  0.13055516     0.14460
N984        N  0.04204527  0.83434611  0.20304545     0.73550
O985        O  0.14555360  0.51380664  0.17053516    -0.39900
O986        O  0.10172393  0.00547523  0.12980644    -0.39840
O987        O  0.03136931  0.82602906  0.24396867    -0.40540
O988        O  0.02909080  0.80870886  0.17395045    -0.40610
C989        C  0.05193424  0.63544305  0.18452949    -0.12890
C990        C  0.07614657  0.64033666  0.14754557     0.04110
C991        C  0.11304629  0.66029866  0.15534093    -0.08180
C992        C  0.12420994  0.67480320  0.19895565    -0.08920
C993        C  0.09968047  0.67039956  0.23530786    -0.03470
C994        C  0.06297210  0.64928901  0.22790371     0.03340
N995        N  0.03643754  0.64074453  0.26425847     0.65850
H996        H  0.02357246  0.61940375  0.18026461     0.14750
H997        H  0.15247754  0.69128601  0.20380998     0.14460
N998        N  0.13959767  0.66675035  0.11986113     0.73550
O999        O  0.00604767  0.63662139  0.25630662    -0.39900
O1000       O  0.04172603  0.63275550  0.30334757    -0.39840
O1001       O  0.13870416  0.68126948  0.08259069    -0.40540
O1002       O  0.16738463  0.66491036  0.12854503    -0.40610
C1003       C  0.36084860  0.90797652  0.14606658    -0.12890
C1004       C  0.35030431  0.92370411  0.11130340     0.04110
C1005       C  0.32167313  0.93170611  0.12051259    -0.08180
C1006       C  0.30422418  0.92310350  0.16402077    -0.08920
C1007       C  0.31478752  0.90713469  0.19837597    -0.03470
C1008       C  0.34374369  0.89982350  0.18942309     0.03340
N1009       N  0.35609915  0.88415906  0.22377349     0.65850
H1010       H  0.38358573  0.90315847  0.13985468     0.14750
H1011       H  0.28104473  0.92709395  0.17055826     0.14460
N1012       N  0.30904087  0.94693343  0.08607881     0.73550
O1013       O  0.37347409  0.86684750  0.21275835    -0.39900
O1014       O  0.35265239  0.89051134  0.26507366    -0.39840
O1015       O  0.31289865  0.94086730  0.04478866    -0.40540
O1016       O  0.29095663  0.96348130  0.09701263    -0.40610
C1017       C  0.44555263  0.60578180  0.80153584    -0.12890
C1018       C  0.40883546  0.59394692  0.80479744     0.04110
C1019       C  0.39029692  0.57837900  0.84715253    -0.08180
C1020       C  0.40828008  0.57425714  0.88373366    -0.08920
C1021       C  0.44482869  0.58529655  0.88015040    -0.03470
C1022       C  0.46367846  0.60203480  0.83825780     0.03340
N1023       N  0.50141060  0.61612953  0.83223895     0.65850
H1024       H  0.46058838  0.61850879  0.77013155     0.14750
H1025       H  0.39321152  0.56173087  0.91518496     0.14460
N1026       N  0.35308726  0.56659352  0.85412520     0.73550
O1027       O  0.51410826  0.60710985  0.79769404    -0.39900
O1028       O  0.52213098  0.64333569  0.85590141    -0.39840
O1029       O  0.33058031  0.53597019  0.83729329    -0.40540
O1030       O  0.34273971  0.58254113  0.88381407    -0.40610
C1031       C  0.17316186  0.60891301  0.80720962    -0.12890
C1032       C  0.18981770  0.58776471  0.79134618     0.04110
C1033       C  0.19082887  0.56099704  0.82197647    -0.08180
C1034       C  0.17555500  0.55655232  0.86645431    -0.08920
C1035       C  0.15914149  0.57799455  0.88246351    -0.03470
C1036       C  0.15746008  0.60416396  0.85143294     0.03340
N1037       N  0.13838028  0.62482478  0.86253025     0.65850
H1038       H  0.17169633  0.62913478  0.78445252     0.14750
H1039       H  0.17688834  0.53612684  0.88904123     0.14460
N1040       N  0.20806422  0.53871619  0.80968581     0.73550
O1041       O  0.15149664  0.65913299  0.84981991    -0.39900
O1042       O  0.10541502  0.60674349  0.87263323    -0.39840
O1043       O  0.24146626  0.55492907  0.80298368    -0.40540
O1044       O  0.19178784  0.50329936  0.81731284    -0.40610
C1045       C  0.43915029  0.81995618  0.81087744    -0.12890
C1046       C  0.40612072  0.81588539  0.79893237     0.04110
C1047       C  0.39036876  0.83410489  0.82578483    -0.08180
C1048       C  0.40743190  0.85480951  0.86400942    -0.08920
C1049       C  0.44001069  0.85803720  0.87653678    -0.03470
C1050       C  0.45597261  0.84017357  0.84948460     0.03340
N1051       N  0.48824223  0.84055092  0.86191496     0.65850
H1052       H  0.45117514  0.80567239  0.79118294     0.14750
H1053       H  0.39533173  0.86901791  0.88370976     0.14460
N1054       N  0.35794042  0.83344979  0.81395848     0.73550
O1055       O  0.50981809  0.83961898  0.83180150    -0.39900
O1056       O  0.49290634  0.83659510  0.90285643    -0.39840
O1057       O  0.32911481  0.80262225  0.81615360    -0.40540
O1058       O  0.35675521  0.86432788  0.81131771    -0.40610
C1059       C  0.30070705  0.53681390  0.49384133    -0.12890
C1060       C  0.27692512  0.53362529  0.53056223     0.04110
C1061       C  0.23994357  0.01392588  0.52311539    -0.08180
C1062       C  0.22820500  0.99767320  0.48028820    -0.08920
C1063       C  0.25232975  0.00082755  0.44396556    -0.03470
C1064       C  0.28906045  0.52120574  0.45130047     0.03340
N1065       N  0.31515225  0.52555267  0.41616422     0.65850
H1066       H  0.32916919  0.55190104  0.49789050     0.14750
H1067       H  0.19985847  0.98179487  0.47570929     0.14460
N1068       N  0.21388362  0.01030299  0.55795216     0.73550
O1069       O  0.31295551  0.53564077  0.37668084    -0.39900
O1070       O  0.34042094  0.01897200  0.42454392    -0.39840
O1071       O  0.21502075  0.53972245  0.57552183    -0.40540
O1072       O  0.18627403  0.97871890  0.56499413    -0.40610
C1073       C  0.50119627  0.78008485  0.53780039    -0.12890
C1074       C  0.49703524  0.74723868  0.56025233     0.04110
C1075       C  0.00836630  0.72359311  0.53640459    -0.08180
C1076       C  0.02527429  0.73426511  0.49289156    -0.08920
C1077       C  0.03139804  0.76838327  0.47222874    -0.03470
C1078       C  0.01789786  0.79080424  0.49432551     0.03340
N1079       N  0.52036580  0.82420562  0.47274417     0.65850
H1080       H  0.49049199  0.79721368  0.55361352     0.14750
H1081       H  0.03575839  0.71705667  0.47656477     0.14460
N1082       N  0.00424718  0.68934442  0.55649205     0.73550
O1083       O  0.52195123  0.85142741  0.49620760    -0.39900
O1084       O  0.01709999  0.82493749  0.43067820    -0.39840
O1085       O  0.48737752  0.65805858  0.53696014    -0.40540
O1086       O  0.02143468  0.69112360  0.59055123    -0.40610
C1087       C  0.29337045  0.78358996  0.52990359    -0.12890
C1088       C  0.27625897  0.74485572  0.54127126     0.04110
C1089       C  0.24957408  0.71886157  0.51303685    -0.08180
C1090       C  0.24112883  0.73340410  0.47450514    -0.08920
C1091       C  0.25866487  0.77244132  0.46332285    -0.03470
C1092       C  0.28547993  0.79767246  0.49157793     0.03340
N1093       N  0.30659373  0.83753880  0.48083742     0.65850
H1094       H  0.31457293  0.80328568  0.55028148     0.14750
H1095       H  0.22055554  0.71421401  0.45305703     0.14460
N1096       N  0.23148220  0.67821379  0.52153460     0.73550
O1097       O  0.31439424  0.86161451  0.51187773    -0.39900
O1098       O  0.32251698  0.84815382  0.44239073    -0.39840
O1099       O  0.23929850  0.66359804  0.55375276    -0.40540
O1100       O  0.20742739  0.65634888  0.49625179    -0.40610
C1101       C  0.34323858  0.70127248  0.94344447    -0.12890
C1102       C  0.32572697  0.67055759  0.97347309     0.04110
C1103       C  0.29838549  0.63550626  0.95931094    -0.08180
C1104       C  0.29405496  0.63014687  0.91298345    -0.08920
C1105       C  0.31373773  0.66020911  0.88266572    -0.03470
C1106       C  0.33719166  0.69658679  0.89802383     0.03340
N1107       N  0.35644234  0.72858820  0.86799913     0.65850
H1108       H  0.36328492  0.72858561  0.95486467     0.14750
H1109       H  0.27423953  0.60319816  0.90043243     0.14460
N1110       N  0.27310820  0.60700942  0.99071327     0.73550
O1111       O  0.35826966  0.76017113  0.87811112    -0.39900
O1112       O  0.37638639  0.72706215  0.83601853    -0.39840
O1113       O  0.27017606  0.61503900  0.03148377    -0.40540
O1114       O  0.24847925  0.57690729  0.97567281    -0.40610
C1115       C  0.29555638  0.65239816  0.42217629    -0.12890
C1116       C  0.31650774  0.67624398  0.38611286     0.04110
C1117       C  0.35285919  0.70304249  0.39143629    -0.08180
C1118       C  0.36698362  0.70365829  0.43304150    -0.08920
C1119       C  0.34680989  0.67786190  0.46763142    -0.03470
C1120       C  0.31019042  0.65281392  0.46345189     0.03340
N1121       N  0.28761536  0.62798911  0.49995251     0.65850
H1122       H  0.26785821  0.63242117  0.41740339     0.14750
H1123       H  0.39466510  0.72344856  0.43821693     0.14460
N1124       N  0.37692081  0.72685333  0.35495184     0.73550
O1125       O  0.25876143  0.59898900  0.49157652    -0.39900
O1126       O  0.29407454  0.63693020  0.54069057    -0.39840
O1127       O  0.36896481  0.72089185  0.31420661    -0.40540
O1128       O  0.40848155  0.75094192  0.36290792    -0.40610
C1129       C  0.39826406  0.60177912  0.39414253    -0.12890
C1130       C  0.41677457  0.58102915  0.39140890     0.04110
C1131       C  0.42392180  0.57005454  0.34789274    -0.08180
C1132       C  0.41289473  0.58044999  0.30862871    -0.08920
C1133       C  0.39268540  0.59951721  0.31177945    -0.03470
C1134       C  0.38566228  0.61025037  0.35525139     0.03340
N1135       N  0.36480751  0.62914778  0.36067298     0.65850
H1136       H  0.39239520  0.61032955  0.42695583     0.14750
H1137       H  0.41752513  0.57070754  0.27595764     0.14460
N1138       N  0.43903585  0.54512611  0.34297128     0.73550
O1139       O  0.34074990  0.61879664  0.39190266    -0.39900
O1140       O  0.36977701  0.65546302  0.33348604    -0.39840
O1141       O  0.42057024  0.51119912  0.35683805    -0.40540
O1142       O  0.46390332  0.55284439  0.31331134    -0.40610
C1143       C  0.15701046  0.61452492  0.36525976    -0.12890
C1144       C  0.13374528  0.57642385  0.37611557     0.04110
C1145       C  0.12703859  0.54877051  0.34232868    -0.08180
C1146       C  0.14545792  0.56040587  0.29947466    -0.08920
C1147       C  0.16897817  0.59885460  0.28854915    -0.03470
C1148       C  0.17437256  0.62635489  0.32242215     0.03340
N1149       N  0.19746067  0.66636952  0.31519720     0.65850
H1150       H  0.16097193  0.63580522  0.39048392     0.14750
H1151       H  0.14127190  0.53922329  0.27410409     0.14460
N1152       N  0.10088584  0.50942269  0.34983503     0.73550
O1153       O  0.18866795  0.68974724  0.33281084    -0.39900
O1154       O  0.22973393  0.67815506  0.30345438    -0.39840
O1155       O  0.09187005  0.49522824  0.38926823    -0.40540
O1156       O  0.08789520  0.98800919  0.31659856    -0.40610
C1157       C  0.37466442  0.80230396  0.34720615    -0.12890
C1158       C  0.39591289  0.81103195  0.30653453     0.04110
C1159       C  0.43309151  0.83490826  0.30827782    -0.08180
C1160       C  0.44744498  0.84936254  0.35033360    -0.08920
C1161       C  0.42539066  0.84439324  0.38919117    -0.03470
C1162       C  0.38894655  0.81785950  0.38865578     0.03340
N1163       N  0.36628960  0.80578182  0.42965278     0.65850
H1164       H  0.34648837  0.78268120  0.34693986     0.14750
H1165       H  0.47566485  0.86813777  0.35165482     0.14460
N1166       N  0.45604285  0.84846561  0.26791700     0.73550
O1167       O  0.33452771  0.77957016  0.42849655    -0.39900
O1168       O  0.37894668  0.81706591  0.46778517    -0.39840
O1169       O  0.44611876  0.85957076  0.23435512    -0.40540
O1170       O  0.48867288  0.85805708  0.26962972    -0.40610
C1171       C  0.27805731  0.51905172  0.01927703    -0.12890
C1172       C  0.25637374  0.52637466  0.05110099     0.04110
C1173       C  0.22052991  0.51417194  0.04122593    -0.08180
C1174       C  0.20795902  0.99595486  0.00004374    -0.08920
C1175       C  0.22954665  0.98828679  0.96852980    -0.03470
C1176       C  0.26508779  0.99958505  0.97888285     0.03340
N1177       N  0.28775184  0.98970835  0.95072514     0.65850
H1178       H  0.30542518  0.52762744  0.02653747     0.14750
H1179       H  0.18061733  0.98743772  0.99264788     0.14460
N1180       N  0.19686496  0.52147759  0.07077211     0.73550
O1181       O  0.32053944  0.01289136  0.94527659    -0.39900
O1182       O  0.27689847  0.95563535  0.93930147    -0.39840
O1183       O  0.20590382  0.55486613  0.08361792    -0.40540
O1184       O  0.16453805  0.49668220  0.07564215    -0.40610
C1185       C  0.99702799  0.78272884  0.04289513    -0.12890
C1186       C  0.47795138  0.74435032  0.05668737     0.04110
C1187       C  0.47560594  0.71651158  0.02482242    -0.08180
C1188       C  0.49263980  0.72768918  0.98136890    -0.08920
C1189       C  0.01160391  0.76605830  0.96751656    -0.03470
C1190       C  0.01404241  0.79393482  0.99943936     0.03340
N1191       N  0.03517557  0.83383192  0.98977750     0.65850
H1192       H  0.99923754  0.80450025  0.06649600     0.14750
H1193       H  0.49044108  0.70590594  0.95779412     0.14460
N1194       N  0.45451005  0.67665990  0.03458389     0.73550
O1195       O  0.02200346  0.85577409  0.99783525    -0.39900
O1196       O  0.06855757  0.84791481  0.98436756    -0.39840
O1197       O  0.42103133  0.66230127  0.03822757    -0.40540
O1198       O  0.46818272  0.65496707  0.02841452    -0.40610
C1199       C  0.23424536  0.72227908  0.02642038    -0.12890
C1200       C  0.26234781  0.75308408  0.04642480     0.04110
C1201       C  0.27588622  0.78992244  0.02666360    -0.08180
C1202       C  0.26104344  0.79463259  0.98716406    -0.08920
C1203       C  0.23268238  0.76382877  0.96744817    -0.03470
C1204       C  0.21939976  0.72710581  0.98715617     0.03340
N1205       N  0.19200280  0.69422510  0.96663641     0.65850
H1206       H  0.22458209  0.69402987  0.04070059     0.14750
H1207       H  0.27044708  0.82286311  0.97295531     0.14460
N1208       N  0.30322027  0.82300267  0.04728045     0.73550
O1209       O  0.17150950  0.66526217  0.99047263    -0.39900
O1210       O  0.19133573  0.69204832  0.92415529    -0.39840
O1211       O  0.30571173  0.82431930  0.08962775    -0.40540
O1212       O  0.32208280  0.85279210  0.02387239    -0.40610
N1213       N  0.85754404  0.16881567  0.07871561    -0.06740
N1214       N  0.84458969  0.15088601  0.04114834    -0.58860
N1215       N  0.91473726  0.23101287  0.14531816    -0.06420
N1216       N  0.94221620  0.25483329  0.11884022    -0.60990
N1217       N  0.91389735  0.19742882  0.14607988    -0.06020
N1218       N  0.94076148  0.19906068  0.11996794    -0.58840
N1219       N  0.85957331  0.20270864  0.07795789    -0.05700
N1220       N  0.84834019  0.20875512  0.04016191    -0.61340
C1221       C  0.83893746  0.17625555  0.01802994     0.95430
C1222       C  0.95780634  0.23456437  0.10206868     0.95210
N1223       N  0.83681747  0.25104530  0.22683551    -0.06930
N1224       N  0.84241555  0.26825340  0.26586342    -0.59440
N1225       N  0.81778319  0.23957208  0.12090456    -0.05050
N1226       N  0.81381279  0.25330082  0.08248577    -0.60690
N1227       N  0.78764826  0.22395618  0.14550922    -0.06960
N1228       N  0.76238952  0.22668284  0.12403009    -0.59710
N1229       N  0.86696117  0.26291795  0.20268097    -0.04690
N1230       N  0.89379366  0.28812981  0.22552746    -0.60780
Mn1231     Mn  0.86556227  0.23516519  0.13782921     1.18440
C1232       C  0.87785982  0.29149610  0.26500174     0.97520
C1233       C  0.77937579  0.24540635  0.08475642     0.98180
N1234       N  0.86416770  0.12036135  0.20883572    -0.06980
N1235       N  0.89010605  0.11899281  0.23051303    -0.63290
N1236       N  0.78433072  0.07956495  0.15298860    -0.05780
N1237       N  0.75788365  0.05228595  0.13126884    -0.63960
N1238       N  0.81412435  0.09248629  0.12787764    -0.06480
N1239       N  0.80878142  0.07455115  0.08928433    -0.63550
N1240       N  0.83463908  0.10618752  0.23485684    -0.05380
N1241       N  0.83987163  0.09512728  0.27429943    -0.64240
Mn1242     Mn  0.86316319  0.14430709  0.14134501     1.10660
C1243       C  0.87438267  0.10308369  0.27158516     0.98740
C1244       C  0.77379661  0.04953666  0.09126681     0.98820
N1245       N  0.73711735  0.14596584  0.20473435    -0.06490
N1246       N  0.70830598  0.14373307  0.22654805    -0.61860
N1247       N  0.78967432  0.14184592  0.27885022    -0.05810
N1248       N  0.79616003  0.13549394  0.31995310    -0.58590
N1249       N  0.79076676  0.17522968  0.27631012    -0.07120
N1250       N  0.79836629  0.19248651  0.31539433    -0.61430
N1251       N  0.73665207  0.11263911  0.20754747    -0.06110
N1252       N  0.70779237  0.08849960  0.23163269    -0.58620
Mn1253     Mn  0.78739125  0.19941211  0.21234527     1.20190
Mn1254     Mn  0.78573878  0.10882095  0.21799970     1.10090
Cl1255     Cl  0.82555846  0.17189067  0.17766964    -0.86590
C1256       C  0.69066884  0.10824259  0.24447487     0.95750
C1257       C  0.80134739  0.16723451  0.34212342     0.95540
N1258       N  0.80229913  0.07639908  0.64026439    -0.06740
N1259       N  0.77632541  0.05201147  0.61506084    -0.58860
N1260       N  0.88103432  0.11640482  0.70112782    -0.06420
N1261       N  0.90697438  0.11617586  0.72409605    -0.60990
N1262       N  0.85103141  0.10082044  0.72602746    -0.06020
N1263       N  0.85597968  0.09006549  0.76590392    -0.58840
N1264       N  0.83275179  0.09093675  0.61632196    -0.05700
N1265       N  0.82822914  0.07684576  0.57539150    -0.61340
C1266       C  0.79312816  0.05254541  0.57424439     0.95430
C1267       C  0.89079795  0.09932674  0.76479491     0.95210
N1268       N  0.93037039  0.22897666  0.64551754    -0.06930
N1269       N  0.95877563  0.25445357  0.62185484    -0.59440
N1270       N  0.87768430  0.16972603  0.57163570    -0.05050
N1271       N  0.86734230  0.15469614  0.53170527    -0.60690
N1272       N  0.87961647  0.20355001  0.57328669    -0.06960
N1273       N  0.87150744  0.21267046  0.53492732    -0.59710
N1274       N  0.93026904  0.19573631  0.64424722    -0.04690
N1275       N  0.95841133  0.19922781  0.61953489    -0.60780
Mn1276     Mn  0.88096236  0.14240815  0.63423144     1.18440
C1277       C  0.97573208  0.23563063  0.60469744     0.97520
C1278       C  0.86404775  0.18224590  0.50953979     0.98180
N1279       N  0.80405326  0.13313194  0.77044881    -0.06980
N1280       N  0.80691837  0.12465494  0.81234173    -0.63290
N1281       N  0.75120695  0.13693241  0.70031857    -0.05780
N1282       N  0.72421889  0.13334983  0.72780798    -0.63960
N1283       N  0.75190604  0.10406333  0.69962122    -0.06480
N1284       N  0.72529960  0.07894005  0.72619529    -0.63550
N1285       N  0.80311487  0.16553358  0.76896168    -0.05380
N1286       N  0.80498692  0.17977787  0.80917267    -0.64240
Mn1287     Mn  0.80200992  0.10232269  0.70808949     1.10660
C1288       C  0.80745426  0.15415471  0.83552119     0.98740
C1289       C  0.70881497  0.09754970  0.74502238     0.98820
N1290       N  0.83159668  0.23278187  0.61694653    -0.06490
N1291       N  0.82700421  0.24440419  0.57753083    -0.61860
N1292       N  0.84920063  0.24455120  0.72492649    -0.05810
N1293       N  0.85339661  0.26363911  0.76278139    -0.58590
N1294       N  0.87949762  0.25841666  0.70072667    -0.07120
N1295       N  0.90484770  0.28727025  0.72175954    -0.61430
N1296       N  0.80122533  0.21630506  0.64109637    -0.06110
N1297       N  0.77534711  0.21674906  0.61847919    -0.58620
Mn1298     Mn  0.88085487  0.23192975  0.63542175     1.20190
Mn1299     Mn  0.80079067  0.19143339  0.70752969     1.10090
Cl1300     Cl  0.84116536  0.16700532  0.67147376    -0.86590
C1301       C  0.79196963  0.23400133  0.57842804     0.95750
C1302       C  0.88800544  0.29058506  0.76043124     0.95540
N1303       N  0.67529345  0.37040408  0.43513884    -0.06740
N1304       N  0.65907831  0.35583113  0.47457959    -0.58860
N1305       N  0.73269307  0.43123006  0.35988546    -0.06420
N1306       N  0.75670202  0.46038018  0.38181093    -0.60990
N1307       N  0.70155234  0.43097883  0.36487870    -0.06020
N1308       N  0.70485559  0.45949996  0.39113134    -0.58840
N1309       N  0.70661192  0.37155773  0.43170185    -0.05700
N1310       N  0.71232828  0.35775790  0.46831029    -0.61340
C1311       C  0.68253212  0.34777555  0.49433864     0.95430
C1312       C  0.73930122  0.47767717  0.40186970     0.95210
N1313       N  0.74925256  0.34727907  0.27947485    -0.06930
N1314       N  0.76648206  0.35227811  0.23987741    -0.59440
N1315       N  0.73936643  0.32698389  0.38691147    -0.05050
N1316       N  0.75295035  0.32371677  0.42432978    -0.60690
N1317       N  0.72517780  0.29459394  0.36553697    -0.06960
N1318       N  0.72952512  0.26860283  0.38829191    -0.59710
N1319       N  0.76142333  0.37952246  0.30120648    -0.04690
N1320       N  0.78755719  0.40728949  0.27657500    -0.60780
Mn1321     Mn  0.73597477  0.37823531  0.36851856     1.18440
C1322       C  0.79019511  0.38950489  0.23832419     0.97520
C1323       C  0.74727256  0.28766788  0.42510261     0.98180
N1324       N  0.62788203  0.37796883  0.31045537    -0.06980
N1325       N  0.62284526  0.40383354  0.28844960    -0.63290
N1326       N  0.58994658  0.29306790  0.37330606    -0.05780
N1327       N  0.56150129  0.26633345  0.39612893    -0.63960
N1328       N  0.60268506  0.32511336  0.39540467    -0.06480
N1329       N  0.58366091  0.32112836  0.43320680    -0.63550
N1330       N  0.61475316  0.34606924  0.28796078    -0.05380
N1331       N  0.60146218  0.34960125  0.25048487    -0.64240
Mn1332     Mn  0.65148809  0.37704861  0.37550517     1.10660
C1333       C  0.60591172  0.38517303  0.25097212     0.98740
C1334       C  0.55794888  0.28470805  0.43344968     0.98820
N1335       N  0.65046949  0.24107910  0.31285437    -0.06490
N1336       N  0.64686841  0.21200058  0.28757757    -0.61860
N1337       N  0.64645529  0.29967188  0.24305610    -0.05810
N1338       N  0.64088786  0.31061048  0.20400458    -0.58590
N1339       N  0.67718093  0.29946453  0.24124754    -0.07120
N1340       N  0.69326915  0.31004682  0.20106481    -0.61430
N1341       N  0.61940084  0.24109103  0.31720687    -0.06110
N1342       N  0.59514573  0.21140439  0.29623622    -0.58620
Mn1343     Mn  0.70089549  0.29469506  0.30104553     1.20190
Mn1344     Mn  0.61670678  0.29420688  0.30653606     1.10090
Cl1345     Cl  0.67622936  0.33602384  0.33791588    -0.86590
C1346       C  0.61238532  0.19356173  0.27723207     0.95750
C1347       C  0.67023054  0.31676604  0.17869836     0.95540
N1348       N  0.70332531  0.29202477  0.87115989    -0.06740
N1349       N  0.72977359  0.29054751  0.89118275    -0.58860
N1350       N  0.62211936  0.25060637  0.81601501    -0.06420
N1351       N  0.59539928  0.22431771  0.79374267    -0.60990
N1352       N  0.65189233  0.26420148  0.79073714    -0.06020
N1353       N  0.64601951  0.24761556  0.75120150    -0.58840
N1354       N  0.67367207  0.27512786  0.89658699    -0.05700
N1355       N  0.67923654  0.26170113  0.93424000    -0.61340
C1356       C  0.71413635  0.27122522  0.93056880     0.95430
C1357       C  0.61085353  0.22279569  0.75293667     0.95210
N1358       N  0.57390767  0.31337142  0.87656630    -0.06930
N1359       N  0.54722267  0.31114759  0.90348881    -0.59440
N1360       N  0.63067904  0.31001817  0.94210694    -0.05050
N1361       N  0.64493023  0.30505049  0.97766385    -0.60690
N1362       N  0.63172937  0.34348419  0.94265940    -0.06960
N1363       N  0.64694618  0.36188519  0.97925393    -0.59710
N1364       N  0.57398913  0.28024929  0.87715567    -0.04690
N1365       N  0.54733847  0.25617454  0.90455675    -0.60780
Mn1366     Mn  0.62425196  0.27777085  0.88194349     1.18440
C1367       C  0.53126355  0.27583449  0.92181934     0.97520
C1368       C  0.65526305  0.33747626  0.00027114     0.98180
N1369       N  0.69546943  0.34013667  0.74437340    -0.06980
N1370       N  0.68822257  0.32275087  0.70575014    -0.63290
N1371       N  0.75042753  0.40387010  0.80896921    -0.05780
N1372       N  0.77812032  0.42840362  0.78325762    -0.63960
N1373       N  0.75109562  0.37110114  0.81138406    -0.06480
N1374       N  0.77965272  0.37425090  0.78793125    -0.63550
N1375       N  0.69426979  0.37231394  0.74231884    -0.05380
N1376       N  0.68606088  0.37767624  0.70181331    -0.64240
Mn1377     Mn  0.70124698  0.31652534  0.80564821     1.10660
C1378       C  0.68192298  0.34613024  0.68022314     0.98740
C1379       C  0.79623846  0.40982996  0.76980605     0.98820
N1380       N  0.67212430  0.42051609  0.89310979    -0.06490
N1381       N  0.67737171  0.43864314  0.93154418    -0.61860
N1382       N  0.65071059  0.40651874  0.78736072    -0.05810
N1383       N  0.64567088  0.41791212  0.74813835    -0.58590
N1384       N  0.62089821  0.39051720  0.81270986    -0.07120
N1385       N  0.59463763  0.39069385  0.79039233    -0.61430
N1386       N  0.70171071  0.43435461  0.86745077    -0.06110
N1387       N  0.72791420  0.46244375  0.88852269    -0.58620
Mn1388     Mn  0.62374278  0.36742027  0.88043732     1.20190
Mn1389     Mn  0.69996480  0.40554167  0.80241554     1.10090
Cl1390     Cl  0.66236015  0.34188931  0.84276748    -0.86590
C1391       C  0.71206252  0.46468177  0.92879259     0.95750
C1392       C  0.61091959  0.40826066  0.75006270     0.95540
N1393       N  0.96893154  0.41288520  0.97654894    -0.06740
N1394       N  0.94255178  0.38571825  0.95480248    -0.58860
N1395       N  0.54865742  0.45225605  0.03475040    -0.06420
N1396       N  0.57454289  0.45177091  0.05742316    -0.60990
N1397       N  0.51827160  0.43556099  0.05882128    -0.06020
N1398       N  0.52268341  0.42335276  0.09788618    -0.58840
N1399       N  0.99891988  0.42618420  0.95178371    -0.05700
N1400       N  0.99360056  0.40840199  0.91283009    -0.61340
C1401       C  0.95851598  0.38300380  0.91501044     0.95430
C1402       C  0.55764465  0.43374194  0.09709605     0.95210
N1403       N  0.59941858  0.06470307  0.97636720    -0.06930
N1404       N  0.62590466  0.08892819  0.94886228    -0.59440
N1405       N  0.54417521  0.50468847  0.90924550    -0.05050
N1406       N  0.03476745  0.48763648  0.87079746    -0.60690
N1407       N  0.54386443  0.03741140  0.90890124    -0.06960
N1408       N  0.53405768  0.04330920  0.86959953    -0.59710
N1409       N  0.59892433  0.03123184  0.97540336    -0.04690
N1410       N  0.62497227  0.03350456  0.94703924    -0.60780
Mn1411     Mn  0.54835580  0.47811451  0.96906990     1.18440
C1412       C  0.64100525  0.06912719  0.92936059     0.97520
C1413       C  0.02914398  0.51214105  0.84640756     0.98180
N1414       N  0.47485782  0.46852913  0.10548847    -0.06980
N1415       N  0.48701903  0.46127168  0.14187866    -0.63290
N1416       N  0.92191070  0.47728690  0.03591360    -0.05780
N1417       N  0.89234655  0.47335937  0.05735617    -0.63960
N1418       N  0.92132803  0.44390051  0.03396936    -0.06480
N1419       N  0.89138967  0.41771103  0.05402605    -0.63550
N1420       N  0.47702822  0.00245587  0.10734321    -0.05380
N1421       N  0.49124068  0.01911875  0.14518699    -0.64240
Mn1422     Mn  0.96994552  0.43904906  0.04279176     1.10660
C1423       C  0.49759512  0.99309318  0.16580059     0.98740
C1424       C  0.87347645  0.43617836  0.06889720     0.98820
N1425       N  0.00135168  0.07254185  0.95579367    -0.06490
N1426       N  0.99673216  0.08513803  0.91699833    -0.61860
N1427       N  0.52072668  0.08086597  0.06328062    -0.05810
N1428       N  0.52520039  0.09624866  0.10340849    -0.58590
N1429       N  0.55119949  0.09446582  0.03949910    -0.07120
N1430       N  0.57723444  0.11936653  0.06419003    -0.61430
N1431       N  0.97148114  0.05725635  0.98091127    -0.06110
N1432       N  0.94601152  0.05975032  0.95932821    -0.58620
Mn1433     Mn  0.54972202  0.06865358  0.97123712     1.20190
Mn1434     Mn  0.97190442  0.02994710  0.04627329     1.10090
Cl1435     Cl  0.51009270  0.00402479  0.00732282    -0.86590
C1436       C  0.96238119  0.07762183  0.91913600     0.95750
C1437       C  0.56031121  0.12039506  0.10432210     0.95540
N1438       N  0.50059384  0.03882574  0.40877377    -0.06740
N1439       N  0.52065003  0.04555774  0.37111304    -0.58860
N1440       N  0.93459580  0.03128945  0.47545940    -0.06420
N1441       N  0.91127770  0.03380333  0.44977389    -0.60990
N1442       N  0.96367430  0.06482455  0.47620847    -0.06020
N1443       N  0.95968154  0.08946094  0.45048683    -0.58840
N1444       N  0.97217318  0.50517488  0.40806815    -0.05700
N1445       N  0.97242724  0.48847706  0.36992836    -0.61340
C1446       C  0.50280608  0.51367380  0.34755737     0.95430
C1447       C  0.92704526  0.06990952  0.43407231     0.95210
N1448       N  0.92202284  0.43445293  0.55833614    -0.06930
N1449       N  0.90448322  0.42226834  0.59755345    -0.59440
N1450       N  0.94083937  0.42511601  0.45266399    -0.05050
N1451       N  0.92868174  0.40432390  0.41659941    -0.60690
N1452       N  0.95568284  0.41041928  0.47817221    -0.06960
N1453       N  0.95362937  0.37898475  0.46014851    -0.59710
N1454       N  0.90841337  0.45170032  0.53480247    -0.04690
N1455       N  0.88086015  0.45144361  0.55860138    -0.60780
Mn1456     Mn  0.93770040  0.47789893  0.46839761     1.18440
C1457       C  0.87861922  0.43229301  0.59781146     0.97520
C1458       C  0.93694020  0.37593302  0.42137930     0.98180
N1459       N  0.53500800  0.09382525  0.53930644    -0.06980
N1460       N  0.53774201  0.12463819  0.56034814    -0.63290
N1461       N  0.58137777  0.05267312  0.48014140    -0.05780
N1462       N  0.60787079  0.05127056  0.45598877    -0.63960
N1463       N  0.56854339  0.07092051  0.45701148    -0.06480
N1464       N  0.58567425  0.08229678  0.41740686    -0.63550
N1465       N  0.54929473  0.07755034  0.56330307    -0.05380
N1466       N  0.56115509  0.09592825  0.60086585    -0.64240
Mn1467     Mn  0.51698345  0.06844313  0.47177512     1.10660
C1468       C  0.55381606  0.12501253  0.59922733     0.98740
C1469       C  0.60979756  0.06985153  0.41667264     0.98820
N1470       N  0.52664257  0.43959636  0.53760001    -0.06490
N1471       N  0.53121173  0.41542292  0.56343017    -0.61860
N1472       N  0.51915138  0.99927228  0.60620369    -0.05810
N1473       N  0.52121211  0.01379097  0.64647698    -0.58590
N1474       N  0.99047068  0.46604239  0.60498635    -0.07120
N1475       N  0.97257124  0.45681658  0.64418630    -0.61430
N1476       N  0.55591572  0.47292257  0.53649623    -0.06110
N1477       N  0.58008275  0.47052949  0.56051689    -0.58620
Mn1478     Mn  0.97362822  0.43669088  0.54339519     1.20190
Mn1479     Mn  0.55260191  0.02602584  0.54562262     1.10090
Cl1480     Cl  0.49519691  0.00230668  0.50719020    -0.86590
C1481       C  0.56443827  0.43494370  0.57825853     0.95750
C1482       C  0.49169638  0.98727016  0.66916833     0.95540
C1483       C  0.51120177  0.96956157  0.73301702    -0.12890
C1484       C  0.49030642  0.98457676  0.71709010     0.04110
C1485       C  0.97870656  0.00575591  0.74468760    -0.08180
C1486       C  0.99201083  0.01484938  0.78774337    -0.08920
C1487       C  0.01625111  0.50327400  0.80173446    -0.03470
C1488       C  0.52543036  0.47981892  0.77458937     0.03340
N1489       N  0.55169112  0.46919531  0.78677336     0.65850
H1490       H  0.52017921  0.95380099  0.71068197     0.14750
H1491       H  0.98363971  0.03086473  0.81032977     0.14460
N1492       N  0.95409868  0.01805160  0.72957753     0.73550
O1493       O  0.54699825  0.43604830  0.77921970    -0.39900
O1494       O  0.58142205  0.49412408  0.79970389    -0.39840
O1495       O  0.93828857  0.00581398  0.69340562    -0.40540
O1496       O  0.94527396  0.03822009  0.75461430    -0.40610
C1497       C  0.53698012  0.03718709  0.27395928    -0.12890
C1498       C  0.51385431  0.50678621  0.30255860     0.04110
C1499       C  0.99643552  0.46995563  0.28531331    -0.08180
C1500       C  0.49410752  0.46538945  0.23914368    -0.08920
C1501       C  0.51142404  0.99703187  0.21035846    -0.03470
C1502       C  0.53731608  0.03199204  0.22705568     0.03340
N1503       N  0.56482900  0.06076104  0.19792244     0.65850
H1504       H  0.55312254  0.06500432  0.28776420     0.14750
H1505       H  0.97662748  0.43764244  0.22614179     0.14460
N1506       N  0.97848365  0.43749077  0.31457402     0.73550
O1507       O  0.59126241  0.08776297  0.21516705    -0.39900
O1508       O  0.56699758  0.05518948  0.15613714    -0.39840
O1509       O  0.94572191  0.41538190  0.31078416    -0.40540
O1510       O  0.99376925  0.43469265  0.34861913    -0.40610
C1511       C  0.56915239  0.38492921  0.68708634    -0.12890
C1512       C  0.59447920  0.41568156  0.71070623     0.04110
C1513       C  0.60989364  0.45250445  0.69044513    -0.08180
C1514       C  0.60012187  0.45714774  0.64710489    -0.08920
C1515       C  0.57508507  0.42643756  0.62283843    -0.03470
C1516       C  0.55920745  0.38989093  0.64382451     0.03340
N1517       N  0.53453527  0.35701571  0.62095573     0.65850
H1518       H  0.55809619  0.35652090  0.70147147     0.14750
H1519       H  0.61192769  0.48550804  0.63251021     0.14460
N1520       N  0.63551289  0.48558862  0.71316774     0.73550
O1521       O  0.54156244  0.32999253  0.61457124    -0.39900
O1522       O  0.50290698  0.35095393  0.61799634    -0.39840
O1523       O  0.63627315  0.48600017  0.75569392    -0.40540
O1524       O  0.65542169  0.51585333  0.69108514    -0.40610
C1525       C  0.54479704  0.16123907  0.66391494    -0.12890
C1526       C  0.56798471  0.15550969  0.63329327     0.04110
C1527       C  0.60448273  0.17226956  0.64221324    -0.08180
C1528       C  0.61640546  0.19252271  0.68210634    -0.08920
C1529       C  0.59353141  0.19827287  0.71340011    -0.03470
C1530       C  0.55716974  0.18339825  0.70305304     0.03340
N1531       N  0.53272591  0.19158620  0.72985085     0.65850
H1532       H  0.51658021  0.14740196  0.65815721     0.14750
H1533       H  0.64441040  0.20440653  0.68842246     0.14460
N1534       N  0.62980876  0.16849168  0.61135950     0.73550
O1535       O  0.51105019  0.19909114  0.71054179    -0.39900
O1536       O  0.52838180  0.18502352  0.77185910    -0.39660
O1537       O  0.62664108  0.16842119  0.56919790    -0.40540
O1538       O  0.65724152  0.16879421  0.62585927    -0.40610
C1539       C  0.83124561  0.39311794  0.71282079    -0.12890
C1540       C  0.81996548  0.41945087  0.72704010     0.04110
C1541       C  0.82662076  0.44981629  0.69646160    -0.08180
C1542       C  0.84360685  0.45234727  0.65317893    -0.08920
C1543       C  0.85464702  0.42567813  0.63943144    -0.03470
C1544       C  0.84770087  0.39535768  0.66987593     0.03340
N1545       N  0.85613302  0.36560001  0.65733429     0.65850
H1546       H  0.82570697  0.36913634  0.73459283     0.14750
H1547       H  0.84949719  0.47620455  0.63092496     0.14460
N1548       N  0.81648737  0.47834264  0.70834141     0.73550
O1549       O  0.86793372  0.35181589  0.68602798    -0.39900
O1550       O  0.84757953  0.34978375  0.61959059    -0.39840
O1551       O  0.82720987  0.49696299  0.74400952    -0.40540
O1552       O  0.80249056  0.48958184  0.67964318    -0.40610
C1553       C  0.71128722  0.34623865  0.56141202    -0.12890
C1554       C  0.67925717  0.33539666  0.54065206     0.04110
C1555       C  0.64675969  0.32140522  0.56636140    -0.08180
C1556       C  0.64809538  0.32605177  0.61297806    -0.08920
C1557       C  0.68101083  0.34247411  0.63263576    -0.03470
C1558       C  0.71271120  0.35082026  0.60751723     0.03340
N1559       N  0.74662958  0.36597196  0.62778554     0.65850
H1560       H  0.73610749  0.35544248  0.54157922     0.14750
H1561       H  0.62376905  0.31670419  0.63398465     0.14460
N1562       N  0.61299672  0.30197818  0.54580137     0.73550
O1563       O  0.77008845  0.35769609  0.61207408    -0.39900
O1564       O  0.75491706  0.39126962  0.65735930    -0.39840
O1565       O  0.61002859  0.28256518  0.51088280    -0.40540
O1566       O  0.58514111  0.29923397  0.56609226    -0.40610
C1567       C  0.68283308  0.31584036  0.05438149    -0.12890
C1568       C  0.67308187  0.34342786  0.04250447     0.04110
C1569       C  0.67183239  0.36851402  0.07518366    -0.08180
C1570       C  0.67245826  0.36013648  0.12046187    -0.08920
C1571       C  0.67583038  0.32831794  0.13224433    -0.03470
C1572       C  0.68270057  0.30682793  0.09943407     0.03340
N1573       N  0.68463891  0.27300497  0.11094427     0.65850
H1574       H  0.68553833  0.29759054  0.02896147     0.14750
H1575       H  0.66948586  0.37773752  0.14654998     0.14460
N1576       N  0.67048040  0.40227937  0.06278083     0.73550
O1577       O  0.66293735  0.24978914  0.14031513    -0.39900
O1578       O  0.70388214  0.26316804  0.08674380    -0.39840
O1579       O  0.65587048  0.41627211  0.08931745    -0.40540
O1580       O  0.69026095  0.42213469  0.02990629    -0.40610
C1581       C  0.61018653  0.43806849  0.20074098    -0.12890
C1582       C  0.59255030  0.39952982  0.21419166     0.04110
C1583       C  0.56390068  0.37345935  0.18881511    -0.08180
C1584       C  0.55552994  0.38597393  0.14954819    -0.08920
C1585       C  0.57325403  0.42411298  0.13539529    -0.03470
C1586       C  0.60032129  0.45112134  0.16224971     0.03340
N1587       N  0.61689291  0.49146201  0.15270346     0.65850
H1588       H  0.63163075  0.45805381  0.22054124     0.14750
H1589       H  0.53362840  0.36566297  0.13052817     0.14460
N1590       N  0.54204704  0.33434026  0.20299844     0.73550
O1591       O  0.64560108  0.01379392  0.17050819    -0.39900
O1592       O  0.60167739  0.50548261  0.12982847    -0.39840
O1593       O  0.53136206  0.32600882  0.24391696    -0.40540
O1594       O  0.52910649  0.30871108  0.17389161    -0.40610
C1595       C  0.55195713  0.13543217  0.18454845    -0.12890
C1596       C  0.57617127  0.14032966  0.14756512     0.04110
C1597       C  0.61307072  0.16029831  0.15536117    -0.08180
C1598       C  0.62423188  0.17480771  0.19897512    -0.08920
C1599       C  0.59970016  0.17040222  0.23532524    -0.03470
C1600       C  0.56299276  0.14928308  0.22792145     0.03340
N1601       N  0.53645710  0.14073677  0.26427521     0.65850
H1602       H  0.52359573  0.11938712  0.18028398     0.14750
H1603       H  0.65249892  0.19129577  0.20383025     0.14460
N1604       N  0.63962407  0.16675065  0.11988371     0.73550
O1605       O  0.50606457  0.13660474  0.25632111    -0.39900
O1606       O  0.54174894  0.13275719  0.30336727    -0.39840
O1607       O  0.63872768  0.18126163  0.08260866    -0.40540
O1608       O  0.66741445  0.16491959  0.12857277    -0.40610
C1609       C  0.86083429  0.40799022  0.14603995    -0.12890
C1610       C  0.85028347  0.42371471  0.11128052     0.04110
C1611       C  0.82165151  0.43171439  0.12049778    -0.08180
C1612       C  0.80420894  0.42311269  0.16401023    -0.08920
C1613       C  0.81477921  0.40714712  0.19836164    -0.03470
C1614       C  0.84373573  0.39983803  0.18940004     0.03340
N1615       N  0.85609843  0.38417694  0.22374551     0.65850
H1616       H  0.88357193  0.40317398  0.13982225     0.14750
H1617       H  0.78102911  0.42710138  0.17055442     0.14460
N1618       N  0.80901206  0.44693833  0.08606867     0.73550
O1619       O  0.87347319  0.36686633  0.21272450    -0.39900
O1620       O  0.85265848  0.39053172  0.26504645    -0.39840
O1621       O  0.81286898  0.44087581  0.04477706    -0.40540
O1622       O  0.79092271  0.46347936  0.09700820    -0.40610
C1623       C  0.94556969  0.10575149  0.80154329    -0.12890
C1624       C  0.90885585  0.09393438  0.80481195     0.04110
C1625       C  0.89032022  0.07837600  0.84717181    -0.08180
C1626       C  0.90830346  0.07425111  0.88375182    -0.08920
C1627       C  0.94484963  0.08527850  0.88016426    -0.03470
C1628       C  0.96369623  0.10200416  0.83826510     0.03340
N1629       N  0.00142676  0.11608941  0.83223992     0.65850
H1630       H  0.96060324  0.11846880  0.77013478     0.14750
H1631       H  0.89323698  0.06173374  0.91520702     0.14460
N1632       N  0.85311334  0.06660317  0.85415072     0.73550
O1633       O  0.01411626  0.10706156  0.79769398    -0.39900
O1634       O  0.02215394  0.14330098  0.85589039    -0.39840
O1635       O  0.83059830  0.03598576  0.83731611    -0.40540
O1636       O  0.84277530  0.08255275  0.88384831    -0.40610
C1637       C  0.67317709  0.10889736  0.80721959    -0.12890
C1638       C  0.68983245  0.08774914  0.79135485     0.04110
C1639       C  0.69084591  0.06098278  0.82198464    -0.08180
C1640       C  0.67557412  0.05653833  0.86646333    -0.08920
C1641       C  0.65916090  0.07798045  0.88247418    -0.03470
C1642       C  0.65747801  0.10414961  0.85144431     0.03340
N1643       N  0.63840037  0.12481239  0.86254384     0.65850
H1644       H  0.67171027  0.12911841  0.78446267     0.14750
H1645       H  0.67690878  0.03611308  0.88904939     0.14460
N1646       N  0.70808160  0.03870289  0.80969191     0.73550
O1647       O  0.65151447  0.15911844  0.84982551    -0.39900
O1648       O  0.60543673  0.10673303  0.87265719    -0.39840
O1649       O  0.74148475  0.05491517  0.80300234    -0.40540
O1650       O  0.69180127  0.00328411  0.81730425    -0.40610
C1651       C  0.93915150  0.31996979  0.81085691    -0.12890
C1652       C  0.90612034  0.31589380  0.79891035     0.04110
C1653       C  0.89036553  0.33411164  0.82576093    -0.08180
C1654       C  0.90742596  0.35481675  0.86398687    -0.08920
C1655       C  0.94000547  0.35804806  0.87651723    -0.03470
C1656       C  0.95597184  0.34018881  0.84946461     0.03340
N1657       N  0.98824435  0.34057225  0.86189422     0.65850
H1658       H  0.95117931  0.30568854  0.79116327     0.14750
H1659       H  0.89532286  0.36902274  0.88368614     0.14460
N1660       N  0.85793735  0.33345533  0.81393108     0.73550
O1661       O  0.00982187  0.33964474  0.83178001    -0.39900
O1662       O  0.99290934  0.33661558  0.90283507    -0.39840
O1663       O  0.82911274  0.30262666  0.81611967    -0.40540
O1664       O  0.85675024  0.36433259  0.81129410    -0.40610
C1665       C  0.80071891  0.03678829  0.49387224    -0.12890
C1666       C  0.77693838  0.03360170  0.53059386     0.04110
C1667       C  0.73993054  0.51394760  0.52308219    -0.08180
C1668       C  0.72819357  0.49769514  0.48025443    -0.08920
C1669       C  0.75231973  0.50085093  0.44393313    -0.03470
C1670       C  0.78907109  0.02118070  0.45133137     0.03340
N1671       N  0.81516240  0.02552952  0.41619295     0.65850
H1672       H  0.82918117  0.05187474  0.49792053     0.14750
H1673       H  0.69984730  0.48181498  0.47567444     0.14460
N1674       N  0.71386916  0.51032148  0.55791844     0.73550
O1675       O  0.81296236  0.03561516  0.37670968    -0.39900
O1676       O  0.84039810  0.51897317  0.42451227    -0.39840
O1677       O  0.71503742  0.03970563  0.57555350    -0.40540
O1678       O  0.68626072  0.47873607  0.56495846    -0.40610
C1679       C  0.00119755  0.28009054  0.53779151    -0.12890
C1680       C  0.99703991  0.24724595  0.56024355     0.04110
C1681       C  0.50837726  0.22360623  0.53639875    -0.08180
C1682       C  0.52528955  0.23427968  0.49288900    -0.08920
C1683       C  0.53140722  0.26839494  0.47222279    -0.03470
C1684       C  0.51790151  0.29081215  0.49431783     0.03340
N1685       N  0.02036725  0.32421257  0.47273694     0.65850
H1686       H  0.99049024  0.29721690  0.55360404     0.14750
H1687       H  0.53577817  0.21707353  0.47656676     0.14460
N1688       N  0.50426894  0.18936673  0.55649393     0.73550
O1689       O  0.02195339  0.35143454  0.49620073    -0.39900
O1690       O  0.51709882  0.32494331  0.43067149    -0.39840
O1691       O  0.98724781  0.15805007  0.53708228    -0.40540
O1692       O  0.52161509  0.19117315  0.59039734    -0.40610
C1693       C  0.79336636  0.28359544  0.52991920    -0.12890
C1694       C  0.77625826  0.24485863  0.54127442     0.04110
C1695       C  0.74957296  0.21887039  0.51303640    -0.08180
C1696       C  0.74112562  0.23342023  0.47451283    -0.08920
C1697       C  0.75865884  0.27245983  0.46334190    -0.03470
C1698       C  0.78547180  0.29768590  0.49160283     0.03340
N1699       N  0.80658077  0.33755506  0.48087624     0.65850
H1700       H  0.81456909  0.30328720  0.55029929     0.14750
H1701       H  0.72055420  0.21423330  0.45306029     0.14460
N1702       N  0.73148307  0.17822112  0.52152227     0.73550
O1703       O  0.81437281  0.36162232  0.51192531    -0.39900
O1704       O  0.82251163  0.34818100  0.44243522    -0.39840
O1705       O  0.73932403  0.16359667  0.55370741    -0.40540
O1706       O  0.70740988  0.15636326  0.49625665    -0.40610
C1707       C  0.84325559  0.20129724  0.94344073    -0.12890
C1708       C  0.82575501  0.17058272  0.97347203     0.04110
C1709       C  0.79840877  0.13553101  0.95931872    -0.08180
C1710       C  0.79406895  0.13016758  0.91299330    -0.08920
C1711       C  0.81374442  0.16022798  0.88267081    -0.03470
C1712       C  0.83719679  0.19660844  0.89802317     0.03340
N1713       N  0.85643670  0.22860890  0.86799471     0.65850
H1714       H  0.86330308  0.22861211  0.95485507     0.14750
H1715       H  0.77425293  0.10321669  0.90044794     0.14460
N1716       N  0.77313491  0.10703895  0.99072831     0.73550
O1717       O  0.85825035  0.26018657  0.87810230    -0.39900
O1718       O  0.87638786  0.22709064  0.83601832    -0.39840
O1719       O  0.77021716  0.11507120  0.03150141    -0.40540
O1720       O  0.74849373  0.07694282  0.97569444    -0.40610
C1721       C  0.79555296  0.15236049  0.42216066    -0.12890
C1722       C  0.81650701  0.17621690  0.38610546     0.04110
C1723       C  0.85285573  0.20301785  0.39144133    -0.08180
C1724       C  0.86697501  0.20362495  0.43304805    -0.08920
C1725       C  0.84679897  0.17782079  0.46763070    -0.03470
C1726       C  0.81018122  0.15276967  0.46343979     0.03340
N1727       N  0.78760162  0.12793649  0.49993215     0.65850
H1728       H  0.76785691  0.13238146  0.41737855     0.14750
H1729       H  0.89465454  0.22341732  0.43823139     0.14460
N1730       N  0.87692039  0.22684231  0.35496761     0.73550
O1731       O  0.75874514  0.09894325  0.49154686    -0.39900
O1732       O  0.79406061  0.13686282  0.54067375    -0.39840
O1733       O  0.86897589  0.22088463  0.31421819    -0.40540
O1734       O  0.90847481  0.25094014  0.36293782    -0.40610
C1735       C  0.89828095  0.10177319  0.39413016    -0.12890
C1736       C  0.91680391  0.08103630  0.39139374     0.04110
C1737       C  0.92395713  0.07006876  0.34787635    -0.08180
C1738       C  0.91292580  0.08046068  0.30861350    -0.08920
C1739       C  0.89270606  0.09951636  0.31176660    -0.03470
C1740       C  0.88567563  0.11024090  0.35523991     0.03340
N1741       N  0.86481309  0.12912940  0.36066307     0.65850
H1742       H  0.89240687  0.11031750  0.42694448     0.14750
H1743       H  0.91756175  0.07072419  0.27594118     0.14460
N1744       N  0.93907849  0.04514711  0.34295290     0.73550
O1745       O  0.84075155  0.11876835  0.39188864    -0.39900
O1746       O  0.86978290  0.15545000  0.33348451    -0.39840
O1747       O  0.92061579  0.01121754  0.35681200    -0.40540
O1748       O  0.96395016  0.05287379  0.31329676    -0.40610
C1749       C  0.65703155  0.11452139  0.36518866    -0.12890
C1750       C  0.63376202  0.07642081  0.37603901     0.04110
C1751       C  0.62704745  0.04876917  0.34224707    -0.08180
C1752       C  0.64546725  0.06040693  0.29939394    -0.08920
C1753       C  0.66899263  0.09885521  0.28847473    -0.03470
C1754       C  0.67439191  0.12635377  0.32235161     0.03340
N1755       N  0.69748321  0.16636866  0.31513202     0.65850
H1756       H  0.66099819  0.13579981  0.39041740     0.14750
H1757       H  0.64127846  0.03922702  0.27401872     0.14460
N1758       N  0.60088902  0.00942176  0.34974705     0.73550
O1759       O  0.68869534  0.18974681  0.33275545    -0.39900
O1760       O  0.72975547  0.17815209  0.30338598    -0.39840
O1761       O  0.59184217  0.99523165  0.38917998    -0.40540
O1762       O  0.58786998  0.48801370  0.31669013    -0.40610
C1763       C  0.87466145  0.30230012  0.34720781    -0.12890
C1764       C  0.89591901  0.31102840  0.30654403     0.04110
C1765       C  0.93309702  0.33490424  0.30830052    -0.08180
C1766       C  0.94743953  0.34935969  0.35036046    -0.08920
C1767       C  0.92537598  0.34439015  0.38920814    -0.03470
C1768       C  0.88893270  0.31785656  0.38866099     0.03340
N1769       N  0.86626569  0.30578239  0.42964969     0.65850
H1770       H  0.84648487  0.28267655  0.34693242     0.14750
H1771       H  0.97566043  0.36813653  0.35169212     0.14460
N1772       N  0.95605867  0.34845873  0.26794831     0.73550
O1773       O  0.83449948  0.27958271  0.42848082    -0.39900
O1774       O  0.87891577  0.31705607  0.46778768    -0.39840
O1775       O  0.94614719  0.35956922  0.23437887    -0.40540
O1776       O  0.98868626  0.35804341  0.26967670    -0.40610
C1777       C  0.77809404  0.01905685  0.01925508    -0.12890
C1778       C  0.75641259  0.02638687  0.05107449     0.04110
C1779       C  0.72057088  0.01419187  0.04119573    -0.08180
C1780       C  0.70791680  0.49593077  0.00007572    -0.08920
C1781       C  0.72950790  0.48827205  0.96855615    -0.03470
C1782       C  0.76505199  0.49958066  0.97890426     0.03340
N1783       N  0.78772087  0.48971509  0.95074044     0.65850
H1784       H  0.80545993  0.02762647  0.02651981     0.14750
H1785       H  0.68057249  0.48740468  0.99268454     0.14460
N1786       N  0.69690729  0.02150247  0.07073870     0.73550
O1787       O  0.82050473  0.51290975  0.94528194    -0.39900
O1788       O  0.77687856  0.45564280  0.93932115    -0.39840
O1789       O  0.70595130  0.05489122  0.08358792    -0.40540
O1790       O  0.66457787  0.99671291  0.07560129    -0.40610
C1791       C  0.49704181  0.28272113  0.04289415    -0.12890
C1792       C  0.97797502  0.24434611  0.05670134     0.04110
C1793       C  0.97562619  0.21650012  0.02484550    -0.08180
C1794       C  0.99264613  0.22766771  0.98138438    -0.08920
C1795       C  0.51159969  0.26603336  0.96751676    -0.03470
C1796       C  0.51404234  0.29391724  0.99943097     0.03340
N1797       N  0.53516567  0.33381281  0.98975230     0.65850
H1798       H  0.49925341  0.30449767  0.06648807     0.14750
H1799       H  0.99044559  0.20587930  0.95781674     0.14460
N1800       N  0.95454126  0.17665022  0.03462501     0.73550
O1801       O  0.52198610  0.35574920  0.99780269    -0.39900
O1802       O  0.56854823  0.34790393  0.98433897    -0.39840
O1803       O  0.92106138  0.16227997  0.03826215    -0.40540
O1804       O  0.96822564  0.15496629  0.02847597    -0.40610
C1805       C  0.73427100  0.22227994  0.02641028    -0.12890
C1806       C  0.76237404  0.25308849  0.04640948     0.04110
C1807       C  0.77590341  0.28992547  0.02664753    -0.08180
C1808       C  0.76105179  0.29463033  0.98715276    -0.08920
C1809       C  0.73269025  0.26382290  0.96744217    -0.03470
C1810       C  0.71941669  0.22710143  0.98715095     0.03340
N1811       N  0.69202092  0.19421685  0.96663598     0.65850
H1812       H  0.72461360  0.19403189  0.04069111     0.14750
H1813       H  0.77044927  0.32285955  0.97294341     0.14460
N1814       N  0.80323696  0.32300962  0.04725869     0.73550
O1815       O  0.67153449  0.16525301  0.99047512    -0.39900
O1816       O  0.69135011  0.19203783  0.92415528    -0.39840
O1817       O  0.80573714  0.32432766  0.08960452    -0.40540
O1818       O  0.82208909  0.35280046  0.02384841    -0.40610
N1819       N  0.85750343  0.66879526  0.07872586    -0.06740
N1820       N  0.84455030  0.65086264  0.04115984    -0.58860
N1821       N  0.91470821  0.73100419  0.14530987    -0.06420
N1822       N  0.94218438  0.75482618  0.11882885    -0.60990
N1823       N  0.91386963  0.69742073  0.14606821    -0.06020
N1824       N  0.94073084  0.69905380  0.11994764    -0.58840
N1825       N  0.85953096  0.70268726  0.07796462    -0.05700
N1826       N  0.84829725  0.70873021  0.04016707    -0.61340
C1827       C  0.83889627  0.67622926  0.01803816     0.95430
C1828       C  0.95777430  0.73455902  0.10205078     0.95210
N1829       N  0.83679621  0.75104493  0.22684031    -0.06930
N1830       N  0.84240058  0.76825746  0.26586598    -0.59440
N1831       N  0.81775046  0.73955785  0.12091625    -0.05050
N1832       N  0.81378064  0.75328679  0.08249800    -0.60690
N1833       N  0.78761671  0.72394581  0.14552364    -0.06960
N1834       N  0.76235887  0.72667577  0.12404611    -0.59710
N1835       N  0.86693709  0.76291277  0.20268039    -0.04690
N1836       N  0.89377349  0.78812541  0.22552059    -0.60780
Mn1837     Mn  0.86552988  0.73515228  0.13783205     1.18440
C1838       C  0.87784560  0.79149781  0.26499682     0.97520
C1839       C  0.77934537  0.74539670  0.08477097     0.98180
N1840       N  0.86414250  0.62035886  0.20884965    -0.06980
N1841       N  0.89008181  0.61899016  0.23052471    -0.63290
N1842       N  0.78429689  0.57955657  0.15301457    -0.05780
N1843       N  0.75784767  0.55227809  0.13129626    -0.63960
N1844       N  0.81408955  0.59247428  0.12790181    -0.06480
N1845       N  0.80874375  0.57453733  0.08930977    -0.63550
N1846       N  0.83461559  0.60618774  0.23487428    -0.05380
N1847       N  0.83985045  0.59512969  0.27431679    -0.64240
Mn1848     Mn  0.86313144  0.64429633  0.14135558     1.10660
C1849       C  0.87436081  0.60308420  0.27159910     0.98740
C1850       C  0.77375848  0.54952540  0.09129357     0.98820
N1851       N  0.73708651  0.64596132  0.20477733    -0.06490
N1852       N  0.70828291  0.64373163  0.22661094    -0.61860
N1853       N  0.78965732  0.64185303  0.27887125    -0.05810
N1854       N  0.79615083  0.63550844  0.31997301    -0.58590
N1855       N  0.79074802  0.67523582  0.27632704    -0.07120
N1856       N  0.79835397  0.69249935  0.31540621    -0.61430
N1857       N  0.73662186  0.61263453  0.20758821    -0.06110
N1858       N  0.70776949  0.58849807  0.23168860    -0.58620
Mn1859     Mn  0.78736544  0.69940979  0.21236341     1.20190
Mn1860     Mn  0.78571267  0.60881928  0.21802507     1.10090
Cl1861     Cl  0.82552915  0.67188350  0.17768406    -0.86590
C1862       C  0.69065034  0.60824269  0.24454391     0.95750
C1863       C  0.80134080  0.66725253  0.34213706     0.95540
N1864       N  0.80228125  0.57641303  0.64023877    -0.06740
N1865       N  0.77630855  0.55202872  0.61503144    -0.58860
N1866       N  0.88101292  0.61640288  0.70110877    -0.06420
N1867       N  0.90695383  0.61617989  0.72408011    -0.60990
N1868       N  0.85100887  0.60081525  0.72600557    -0.06020
N1869       N  0.85595698  0.59006293  0.76588350    -0.58840
N1870       N  0.83273491  0.59095269  0.61629825    -0.05700
N1871       N  0.82821386  0.57686678  0.57536514    -0.61340
C1872       C  0.79311290  0.55256715  0.57421455     0.95430
C1873       C  0.89077648  0.59933009  0.76477764     0.95210
N1874       N  0.93036516  0.72898062  0.64552546    -0.06930
N1875       N  0.95877325  0.75445459  0.62186365    -0.59440
N1876       N  0.87768317  0.66974804  0.57163185    -0.05050
N1877       N  0.86734805  0.65472693  0.53169651    -0.60690
N1878       N  0.87962025  0.70357390  0.57328926    -0.06960
N1879       N  0.87152171  0.71270478  0.53492895    -0.59710
N1880       N  0.93025625  0.69573663  0.64425165    -0.04690
N1881       N  0.95839577  0.69922287  0.61953901    -0.60780
Mn1882     Mn  0.88094810  0.64241640  0.63422066     1.18440
C1883       C  0.97572385  0.73562584  0.60470457     0.97520
C1884       C  0.86406375  0.68228432  0.50953432     0.98180
N1885       N  0.80403873  0.63312743  0.77043884    -0.06980
N1886       N  0.80690581  0.62464444  0.81232836    -0.63290
N1887       N  0.75119790  0.63694866  0.70031472    -0.05780
N1888       N  0.72421125  0.63336847  0.72780513    -0.63960
N1889       N  0.75189100  0.60407651  0.69961080    -0.06480
N1890       N  0.72528222  0.57895365  0.72618288    -0.63550
N1891       N  0.80310520  0.66553194  0.76896063    -0.05380
N1892       N  0.80498222  0.67977222  0.80917470    -0.64240
Mn1893     Mn  0.80199169  0.60232630  0.70807163     1.10660
C1894       C  0.80744779  0.65414360  0.83551537     0.98740
C1895       C  0.70880222  0.59756664  0.74501458     0.98820
N1896       N  0.83159846  0.73279916  0.61695780    -0.06490
N1897       N  0.82700566  0.74441451  0.57753812    -0.61860
N1898       N  0.84919842  0.74455429  0.72494030    -0.05810
N1899       N  0.85339515  0.76363784  0.76279881    -0.58590
N1900       N  0.87949571  0.75842011  0.70074121    -0.07120
N1901       N  0.90484679  0.78726942  0.72177789    -0.61430
N1902       N  0.80122639  0.71632247  0.64110633    -0.06110
N1903       N  0.77534749  0.71675952  0.61848409    -0.58620
Mn1904     Mn  0.88085414  0.73194248  0.63543120     1.20190
Mn1905     Mn  0.80078588  0.69144308  0.70753508     1.10090
Cl1906     Cl  0.84115557  0.66701374  0.67146988    -0.86590
C1907       C  0.79197038  0.73400721  0.57843150     0.95750
C1908       C  0.88800489  0.79058121  0.76045129     0.95540
N1909       N  0.67529444  0.87037519  0.43515426    -0.06740
N1910       N  0.65907575  0.85578745  0.47458882    -0.58860
N1911       N  0.73269593  0.93121198  0.35990795    -0.06420
N1912       N  0.75670676  0.96035875  0.38183610    -0.60990
N1913       N  0.70155620  0.93096218  0.36490677    -0.06020
N1914       N  0.70486188  0.95948117  0.39116506    -0.58840
N1915       N  0.70661218  0.87152729  0.43171194    -0.05700
N1916       N  0.71232410  0.85771177  0.46831075    -0.61340
C1917       C  0.68252613  0.84772091  0.49433843     0.95430
C1918       C  0.73930816  0.97765564  0.40190125     0.95210
N1919       N  0.74924591  0.84726535  0.27947265    -0.06930
N1920       N  0.76647834  0.85226627  0.23987716    -0.59440
N1921       N  0.73936409  0.82696115  0.38690173    -0.05050
N1922       N  0.75295173  0.82369373  0.42431564    -0.60690
N1923       N  0.72517369  0.79457202  0.36552571    -0.06960
N1924       N  0.72952384  0.76858062  0.38827633    -0.59710
N1925       N  0.76141963  0.87950632  0.30121006    -0.04690
N1926       N  0.78755908  0.90727322  0.27658529    -0.60780
Mn1927     Mn  0.73597371  0.87821394  0.36852478     1.18440
C1928       C  0.79019648  0.88949145  0.23833180     0.97520
C1929       C  0.74727502  0.78764583  0.42508510     0.98180
N1930       N  0.62788586  0.87796105  0.31048014    -0.06980
N1931       N  0.62285560  0.90383014  0.28847394    -0.63290
N1932       N  0.58994422  0.79305405  0.37331966    -0.05780
N1933       N  0.56149459  0.76632131  0.39613747    -0.63960
N1934       N  0.60268513  0.82509795  0.39542150    -0.06480
N1935       N  0.58365879  0.82111346  0.43322138    -0.63550
N1936       N  0.61475391  0.84606224  0.28798397    -0.05380
N1937       N  0.60146754  0.84959863  0.25050701    -0.64240
Mn1938     Mn  0.65149047  0.87703214  0.37552696     1.10660
C1939       C  0.60592265  0.88517212  0.25099499     0.98740
C1940       C  0.55794270  0.78469530  0.43345903     0.98820
N1941       N  0.65046031  0.74106369  0.31284437    -0.06490
N1942       N  0.64685514  0.71198770  0.28755948    -0.61860
N1943       N  0.64644493  0.79966491  0.24306275    -0.05810
N1944       N  0.64087485  0.81060963  0.20401674    -0.58590
N1945       N  0.67717072  0.79945787  0.24124612    -0.07120
N1946       N  0.69325648  0.81004680  0.20106270    -0.61430
N1947       N  0.61939277  0.74107750  0.31720646    -0.06110
N1948       N  0.59513447  0.71139458  0.29623421    -0.58620
Mn1949     Mn  0.70088798  0.79468002  0.30103860     1.20190
Mn1950     Mn  0.61670203  0.79419623  0.30654780     1.10090
Cl1951     Cl  0.67622669  0.83600780  0.33792412    -0.86590
C1952       C  0.61237064  0.69355252  0.27721867     0.95750
C1953       C  0.67021607  0.81676966  0.17870468     0.95540
N1954       N  0.70332951  0.79203605  0.87116038    -0.06740
N1955       N  0.72977431  0.79055270  0.89118473    -0.58860
N1956       N  0.62212134  0.75062389  0.81602300    -0.06420
N1957       N  0.59539561  0.72433935  0.79375509    -0.60990
N1958       N  0.65189210  0.76420972  0.79074155    -0.06020
N1959       N  0.64601155  0.74762085  0.75120739    -0.58840
N1960       N  0.67367651  0.77514862  0.89658952    -0.05700
N1961       N  0.67923732  0.76172260  0.93424512    -0.61340
C1962       C  0.71413453  0.77123703  0.93057363     0.95430
C1963       C  0.61084316  0.72280940  0.75294768     0.95210
N1964       N  0.57392301  0.81340481  0.87656883    -0.06930
N1965       N  0.54724216  0.81118396  0.90349855    -0.59440
N1966       N  0.63069404  0.81005430  0.94210245    -0.05050
N1967       N  0.64493632  0.80508420  0.97766661    -0.60690
N1968       N  0.63174846  0.84352217  0.94264907    -0.06960
N1969       N  0.64695915  0.86192244  0.97924699    -0.59710
N1970       N  0.57400057  0.78028062  0.87715558    -0.04690
N1971       N  0.54734924  0.75620625  0.90455645    -0.60780
Mn1972     Mn  0.62426103  0.77779794  0.88194475     1.18440
C1973       C  0.53127858  0.77586859  0.92182459     0.97520
C1974       C  0.65526768  0.83751044  0.00027300     0.98180
N1975       N  0.69548052  0.84013638  0.74436422    -0.06980
N1976       N  0.68823080  0.82274478  0.70574526    -0.63290
N1977       N  0.75044822  0.90387392  0.80894800    -0.05780
N1978       N  0.77814122  0.92840436  0.78323415    -0.63960
N1979       N  0.75111149  0.87110234  0.81136237    -0.06480
N1980       N  0.77966473  0.87424661  0.78790362    -0.63550
N1981       N  0.69428740  0.87231679  0.74230130    -0.05380
N1982       N  0.68608031  0.87767570  0.70179295    -0.64240
Mn1983     Mn  0.70125461  0.81652993  0.80564259     1.10660
C1984       C  0.68193669  0.84612405  0.68021121     0.98740
C1985       C  0.79625402  0.90982602  0.76977853     0.98820
N1986       N  0.67215357  0.92054359  0.89308159    -0.06490
N1987       N  0.67740542  0.93867101  0.93151573    -0.61860
N1988       N  0.65073933  0.90653745  0.78733532    -0.05810
N1989       N  0.64570440  0.91792882  0.74810898    -0.58590
N1990       N  0.62092541  0.89054189  0.81268240    -0.07120
N1991       N  0.59466848  0.89072064  0.79035793    -0.61430
N1992       N  0.70174036  0.93437318  0.86742376    -0.06110
N1993       N  0.72794843  0.96245645  0.88849662    -0.58620
Mn1994     Mn  0.62376540  0.86745209  0.88041970     1.20190
Mn1995     Mn  0.69998883  0.90555284  0.80239329     1.10090
Cl1996     Cl  0.66237596  0.84190803  0.84275642    -0.86590
C1997       C  0.71209898  0.96470023  0.92876558     0.95750
C1998       C  0.61095468  0.90828261  0.75002710     0.95540
N1999       N  0.96894860  0.91287396  0.97656476    -0.06740
N2000       N  0.94256590  0.88570772  0.95482199    -0.58860
N2001       N  0.54867989  0.95223967  0.03475381    -0.06420
N2002       N  0.57456714  0.95175673  0.05742506    -0.60990
N2003       N  0.51829509  0.93554390  0.05882638    -0.06020
N2004       N  0.52270890  0.92333648  0.09789014    -0.58840
N2005       N  0.99893455  0.92617273  0.95179449    -0.05700
N2006       N  0.99361061  0.90839097  0.91284038    -0.61340
C2007       C  0.95852571  0.88299353  0.91502648     0.95430
C2008       C  0.55767035  0.93372763  0.09709854     0.95210
N2009       N  0.59939619  0.56471768  0.97635297    -0.06930
N2010       N  0.62588158  0.58894233  0.94884696    -0.59440
N2011       N  0.54419064  0.00467906  0.90925916    -0.05050
N2012       N  0.03479384  0.98763807  0.87080281    -0.60690
N2013       N  0.54384478  0.53741857  0.90888084    -0.06960
N2014       N  0.53402455  0.54330268  0.86958127    -0.59710
N2015       N  0.59890451  0.53124773  0.97539413    -0.04690
N2016       N  0.62495351  0.53352076  0.94703159    -0.60780
Mn2017     Mn  0.54837384  0.97810068  0.96907795     1.18440
C2018       C  0.64098453  0.56914224  0.92934930     0.97520
C2019       C  0.02918065  0.01215303  0.84641812     0.98180
N2020       N  0.47489189  0.96851721  0.10550537    -0.06980
N2021       N  0.48706922  0.96126435  0.14188363    -0.63290
N2022       N  0.92193680  0.97727633  0.03594156    -0.05780
N2023       N  0.89237322  0.97334991  0.05738438    -0.63960
N2024       N  0.92135279  0.94388943  0.03399693    -0.06480
N2025       N  0.89141455  0.91770039  0.05405448    -0.63550
N2026       N  0.47699035  0.50246600  0.10732406    -0.05380
N2027       N  0.49118291  0.51912354  0.14517847    -0.64240
Mn2028     Mn  0.96996976  0.93903623  0.04280837     1.10660
C2029       C  0.49752954  0.49309616  0.16580135     0.98740
C2030       C  0.87350226  0.93616884  0.06892477     0.98820
N2031       N  0.00132826  0.57255051  0.95577138    -0.06490
N2032       N  0.99670963  0.58514943  0.91697772    -0.61860
N2033       N  0.52069956  0.58087638  0.06326031    -0.05810
N2034       N  0.52517373  0.59625817  0.10338892    -0.58590
N2035       N  0.55117244  0.59447640  0.03947842    -0.07120
N2036       N  0.57720760  0.61937586  0.06416990    -0.61430
N2037       N  0.97145811  0.55726696  0.98088961    -0.06110
N2038       N  0.94598960  0.55976473  0.95930940    -0.58620
Mn2039     Mn  0.54969850  0.56866398  0.97121676     1.20190
Mn2040     Mn  0.97187690  0.52995796  0.04625056     1.10090
Cl2041     Cl  0.51006928  0.50403674  0.00730587    -0.86590
C2042       C  0.96235965  0.57763678  0.91911829     0.95750
C2043       C  0.56028481  0.62040409  0.10430232     0.95540
N2044       N  0.50056268  0.53881195  0.40880497    -0.06740
N2045       N  0.52061569  0.54554367  0.37114053    -0.58860
N2046       N  0.93455569  0.53127575  0.47547856    -0.06420
N2047       N  0.91124097  0.53379134  0.44978810    -0.60990
N2048       N  0.96363409  0.56481063  0.47623241    -0.06020
N2049       N  0.95964456  0.58944872  0.45050999    -0.58840
N2050       N  0.97220774  0.00518566  0.40803896    -0.05700
N2051       N  0.97246859  0.98848578  0.36990231    -0.61340
C2052       C  0.50284778  0.01368569  0.34753312     0.95430
C2053       C  0.92701060  0.56989848  0.43408908     0.95210
N2054       N  0.92207398  0.93447876  0.55832580    -0.06930
N2055       N  0.90453663  0.92229588  0.59754525    -0.59440
N2056       N  0.94087173  0.92512658  0.45264371    -0.05050
N2057       N  0.92870879  0.90433286  0.41658150    -0.60690
N2058       N  0.95571422  0.91042818  0.47815110    -0.06960
N2059       N  0.95365500  0.87899068  0.46012803    -0.59710
N2060       N  0.90845882  0.95171861  0.53478897    -0.04690
N2061       N  0.88090315  0.95145718  0.55858710    -0.60780
Mn2062     Mn  0.93773869  0.97791195  0.46837641     1.18440
C2063       C  0.87866713  0.93231268  0.59780055     0.97520
C2064       C  0.93696280  0.87593876  0.42136083     0.98180
N2065       N  0.53495747  0.59381190  0.53934855    -0.06980
N2066       N  0.53769629  0.62462971  0.56038273    -0.63290
N2067       N  0.58133882  0.55266662  0.48020467    -0.05780
N2068       N  0.60783924  0.55126984  0.45606249    -0.63960
N2069       N  0.56850601  0.57091058  0.45706527    -0.06480
N2070       N  0.58564473  0.58229001  0.41746546    -0.63550
N2071       N  0.54923380  0.57753260  0.56335681    -0.05380
N2072       N  0.56109036  0.59591157  0.60092019    -0.64240
Mn2073     Mn  0.51694398  0.56843035  0.47181154     1.10660
C2074       C  0.55375954  0.62500112  0.59927047     0.98740
C2075       C  0.60977284  0.56985158  0.41674356     0.98820
N2076       N  0.52668601  0.93960758  0.53755409    -0.06490
N2077       N  0.53125524  0.91543481  0.56338507    -0.61860
N2078       N  0.51907825  0.49924662  0.60625275    -0.05810
N2079       N  0.52111606  0.51375741  0.64652836    -0.58590
N2080       N  0.99053790  0.96607151  0.60495459    -0.07120
N2081       N  0.97265641  0.95685524  0.64416750    -0.61430
N2082       N  0.55596237  0.97293141  0.53644011    -0.06110
N2083       N  0.58013078  0.97053691  0.56045691    -0.58620
Mn2084     Mn  0.97367509  0.93670921  0.54336936     1.20190
Mn2085     Mn  0.55254722  0.52601165  0.54568050     1.10090
Cl2086     Cl  0.49515245  0.50229257  0.50722536    -0.86590
C2087       C  0.56448428  0.93495313  0.57820553     0.95750
C2088       C  0.49159253  0.48722771  0.66920034     0.95540
C2089       C  0.51103254  0.46945141  0.73305701    -0.12890
C2090       C  0.49018147  0.48451847  0.71712297     0.04110
C2091       C  0.97863354  0.50574537  0.74471045    -0.08180
C2092       C  0.99196229  0.51484927  0.78775278    -0.08920
C2093       C  0.01632722  0.00331509  0.80172686    -0.03470
C2094       C  0.52557195  0.97992071  0.77456490     0.03340
N2095       N  0.55186122  0.96934375  0.78676036     0.65850
H2096       H  0.51996830  0.45365098  0.71072916     0.14750
H2097       H  0.98363434  0.53090758  0.81032709     0.14460
N2098       N  0.95405263  0.51807758  0.72959928     0.73550
O2099       O  0.54721497  0.93621520  0.77919718    -0.39900
O2100       O  0.58156355  0.99429282  0.79974381    -0.39840
O2101       O  0.93820135  0.50581085  0.69345980    -0.40540
O2102       O  0.94528524  0.53830319  0.75461306    -0.40610
C2103       C  0.53692031  0.53717644  0.27397179    -0.12890
C2104       C  0.51391291  0.00679671  0.30254555     0.04110
C2105       C  0.99651302  0.96996310  0.28530702    -0.08180
C2106       C  0.49419802  0.96538975  0.23913712    -0.08920
C2107       C  0.51134325  0.49703220  0.21036793    -0.03470
C2108       C  0.53724613  0.53198630  0.22706641     0.03340
N2109       N  0.56476124  0.56075300  0.19793258     0.65850
H2110       H  0.55307316  0.56498982  0.28777963     0.14750
H2111       H  0.97672697  0.93763890  0.22613791     0.14460
N2112       N  0.97855574  0.93750264  0.31457229     0.73550
O2113       O  0.59119787  0.58775134  0.21517650    -0.39900
O2114       O  0.56692754  0.55518210  0.15614677    -0.39840
O2115       O  0.94578941  0.91541050  0.31079225    -0.40540
O2116       O  0.99383551  0.93470938  0.34862641    -0.40610
C2117       C  0.56918576  0.88494977  0.68705086    -0.12890
C2118       C  0.59452065  0.91570210  0.71066200     0.04110
C2119       C  0.60994770  0.95252054  0.69038635    -0.08180
C2120       C  0.60017927  0.95715996  0.64704253    -0.08920
C2121       C  0.57513254  0.92644995  0.62278624    -0.03470
C2122       C  0.55924402  0.88990761  0.64378524     0.03340
N2123       N  0.53456315  0.85703158  0.62092620     0.65850
H2124       H  0.55812007  0.85654387  0.70144614     0.14750
H2125       H  0.61199450  0.98551761  0.63243811     0.14460
N2126       N  0.63557527  0.98560463  0.71309950     0.73550
O2127       O  0.54158221  0.83000232  0.61454564    -0.39900
O2128       O  0.50293602  0.85097620  0.61797572    -0.39840
O2129       O  0.63632229  0.98603251  0.75562719    -0.40540
O2130       O  0.65550365  0.01585581  0.69100416    -0.40610
C2131       C  0.54475896  0.66123628  0.66396061    -0.12890
C2132       C  0.56793834  0.65550671  0.63332485     0.04110
C2133       C  0.60444081  0.67227397  0.64222250    -0.08180
C2134       C  0.61637632  0.69253452  0.68210853    -0.08920
C2135       C  0.59351069  0.69828672  0.71341492    -0.03470
C2136       C  0.55714462  0.68340829  0.70308652     0.03340
N2137       N  0.53270992  0.69160997  0.72988507     0.65850
H2138       H  0.51653859  0.64739004  0.65822381     0.14750
H2139       H  0.64438419  0.70442171  0.68840911     0.14460
N2140       N  0.62975786  0.66849304  0.61135525     0.73550
O2141       O  0.51103287  0.69911318  0.71057665    -0.39900
O2142       O  0.52837694  0.68506643  0.77189697    -0.39660
O2143       O  0.62657182  0.66840799  0.56919672    -0.40540
O2144       O  0.65719966  0.66880555  0.62583840    -0.40610
C2145       C  0.83127685  0.89312405  0.71280239    -0.12890
C2146       C  0.81998533  0.91944944  0.72701516     0.04110
C2147       C  0.82663829  0.94981279  0.69643419    -0.08180
C2148       C  0.84363442  0.95235016  0.65315699    -0.08920
C2149       C  0.85468802  0.92569019  0.63941662    -0.03470
C2150       C  0.84774352  0.89537093  0.66986259     0.03340
N2151       N  0.85618880  0.86562150  0.65732722     0.65850
H2152       H  0.82574034  0.86914411  0.73457633     0.14750
H2153       H  0.84952162  0.97620581  0.63090173     0.14460
N2154       N  0.81649174  0.97833061  0.70830540     0.73550
O2155       O  0.86799113  0.85184417  0.68602703    -0.39900
O2156       O  0.84764462  0.84980414  0.61958254    -0.39840
O2157       O  0.82721310  0.99696110  0.74396722    -0.40540
O2158       O  0.80248652  0.98955532  0.67960253    -0.40610
C2159       C  0.71128135  0.84617194  0.56140533    -0.12890
C2160       C  0.67925064  0.83533407  0.54064866     0.04110
C2161       C  0.64675683  0.82135993  0.56636271    -0.08180
C2162       C  0.64809988  0.82602784  0.61297592    -0.08920
C2163       C  0.68101858  0.84245528  0.63262586    -0.03470
C2164       C  0.71271351  0.85077961  0.60750667     0.03340
N2165       N  0.74663503  0.86593693  0.62776857     0.65850
H2166       H  0.73609797  0.85535975  0.54156943     0.14750
H2167       H  0.62377695  0.81669396  0.63398593     0.14460
N2168       N  0.61299048  0.80193316  0.54581013     0.73550
O2169       O  0.77008952  0.85765132  0.61206522    -0.39900
O2170       O  0.75492968  0.89124821  0.65732601    -0.39840
O2171       O  0.61001657  0.78251893  0.51089115    -0.40540
O2172       O  0.58513810  0.79919318  0.56610587    -0.40610
C2173       C  0.68283311  0.81587299  0.05438609    -0.12890
C2174       C  0.67307733  0.84345811  0.04251365     0.04110
C2175       C  0.67181133  0.86853086  0.07520098    -0.08180
C2176       C  0.67243305  0.86014414  0.12047780    -0.08920
C2177       C  0.67581239  0.82832810  0.13225238    -0.03470
C2178       C  0.68268992  0.80684763  0.09943649     0.03340
N2179       N  0.68462393  0.77302029  0.11093724     0.65850
H2180       H  0.68554873  0.79763264  0.02896114     0.14750
H2181       H  0.66945133  0.87773585  0.14657102     0.14460
N2182       N  0.67044179  0.90228929  0.06280972     0.73550
O2183       O  0.66291593  0.74979780  0.14029796    -0.39900
O2184       O  0.70386805  0.76318610  0.08673459    -0.39840
O2185       O  0.65581758  0.91626310  0.08935196    -0.40540
O2186       O  0.69021790  0.92215839  0.02994018    -0.40610
C2187       C  0.61021324  0.93806480  0.20074622    -0.12890
C2188       C  0.59256530  0.89953012  0.21421287     0.04110
C2189       C  0.56391000  0.87345933  0.18884492    -0.08180
C2190       C  0.55554569  0.88596799  0.14956907    -0.08920
C2191       C  0.57328002  0.92410302  0.13540051    -0.03470
C2192       C  0.60035313  0.95111325  0.16224674     0.03340
N2193       N  0.61693546  0.99145198  0.15268462     0.65850
H2194       H  0.63166250  0.95805016  0.22053994     0.14750
H2195       H  0.53364009  0.86565646  0.13055516     0.14460
N2196       N  0.54204527  0.83434611  0.20304544     0.73550
O2197       O  0.64555362  0.51380665  0.17053514    -0.39900
O2198       O  0.60172392  0.00547524  0.12980643    -0.39840
O2199       O  0.53136932  0.82602906  0.24396867    -0.40540
O2200       O  0.52909080  0.80870886  0.17395044    -0.40610
C2201       C  0.55193424  0.63544306  0.18452948    -0.12890
C2202       C  0.57614657  0.64033666  0.14754557     0.04110
C2203       C  0.61304629  0.66029865  0.15534093    -0.08180
C2204       C  0.62420994  0.67480320  0.19895565    -0.08920
C2205       C  0.59968047  0.67039956  0.23530786    -0.03470
C2206       C  0.56297210  0.64928901  0.22790371     0.03340
N2207       N  0.53643754  0.64074454  0.26425846     0.65850
H2208       H  0.52357246  0.61940376  0.18026460     0.14750
H2209       H  0.65247754  0.69128600  0.20380998     0.14460
N2210       N  0.63959767  0.66675034  0.11986113     0.73550
O2211       O  0.50604767  0.63662140  0.25630661    -0.39900
O2212       O  0.54172602  0.63275551  0.30334756    -0.39840
O2213       O  0.63870416  0.68126948  0.08259069    -0.40540
O2214       O  0.66738463  0.66491035  0.12854503    -0.40610
C2215       C  0.86084860  0.90797652  0.14606659    -0.12890
C2216       C  0.85030432  0.92370411  0.11130341     0.04110
C2217       C  0.82167313  0.93170610  0.12051259    -0.08180
C2218       C  0.80422418  0.92310349  0.16402077    -0.08920
C2219       C  0.81478752  0.90713469  0.19837598    -0.03470
C2220       C  0.84374369  0.89982351  0.18942310     0.03340
N2221       N  0.85609916  0.88415907  0.22377351     0.65850
H2222       H  0.88358574  0.90315848  0.13985469     0.14750
H2223       H  0.78104472  0.92709395  0.17055826     0.14460
N2224       N  0.80904087  0.94693342  0.08607881     0.73550
O2225       O  0.87347410  0.86684751  0.21275837    -0.39900
O2226       O  0.85265240  0.89051136  0.26507367    -0.39840
O2227       O  0.81289865  0.94086729  0.04478866    -0.40540
O2228       O  0.79095662  0.96348129  0.09701263    -0.40610
C2229       C  0.94555262  0.60578179  0.80153584    -0.12890
C2230       C  0.90883546  0.59394692  0.80479745     0.04110
C2231       C  0.89029691  0.57837900  0.84715254    -0.08180
C2232       C  0.90828008  0.57425714  0.88373367    -0.08920
C2233       C  0.94482868  0.58529654  0.88015041    -0.03470
C2234       C  0.96367846  0.60203479  0.83825781     0.03340
N2235       N  0.00141059  0.61612952  0.83223895     0.65850
H2236       H  0.96058838  0.61850879  0.77013156     0.14750
H2237       H  0.89321152  0.56173088  0.91518497     0.14460
N2238       N  0.85308726  0.56659352  0.85412521     0.73550
O2239       O  0.01410826  0.60710984  0.79769405    -0.39900
O2240       O  0.02213098  0.64333568  0.85590140    -0.39840
O2241       O  0.83058031  0.53597019  0.83729330    -0.40540
O2242       O  0.84273971  0.58254113  0.88381409    -0.40610
C2243       C  0.67316186  0.60891302  0.80720962    -0.12890
C2244       C  0.68981770  0.58776472  0.79134618     0.04110
C2245       C  0.69082887  0.56099704  0.82197646    -0.08180
C2246       C  0.67555500  0.55655232  0.86645431    -0.08920
C2247       C  0.65914149  0.57799456  0.88246351    -0.03470
C2248       C  0.65746008  0.60416397  0.85143294     0.03340
N2249       N  0.63838028  0.62482479  0.86253025     0.65850
H2250       H  0.67169633  0.62913478  0.78445252     0.14750
H2251       H  0.67688835  0.53612685  0.88904123     0.14460
N2252       N  0.70806422  0.53871620  0.80968580     0.73550
O2253       O  0.65149664  0.65913300  0.84981991    -0.39900
O2254       O  0.60541503  0.60674350  0.87263323    -0.39840
O2255       O  0.74146627  0.55492908  0.80298368    -0.40540
O2256       O  0.69178784  0.50329936  0.81731283    -0.40610
C2257       C  0.93915029  0.81995618  0.81087743    -0.12890
C2258       C  0.90612072  0.81588539  0.79893237     0.04110
C2259       C  0.89036876  0.83410489  0.82578483    -0.08180
C2260       C  0.90743190  0.85480952  0.86400942    -0.08920
C2261       C  0.94001069  0.85803720  0.87653679    -0.03470
C2262       C  0.95597261  0.84017357  0.84948460     0.03340
N2263       N  0.98824224  0.84055093  0.86191495     0.65850
H2264       H  0.95117514  0.80567239  0.79118294     0.14750
H2265       H  0.89533173  0.86901791  0.88370976     0.14460
N2266       N  0.85794042  0.83344980  0.81395848     0.73550
O2267       O  0.00981809  0.83961899  0.83180149    -0.39900
O2268       O  0.99290634  0.83659510  0.90285642    -0.39840
O2269       O  0.82911481  0.80262227  0.81615359    -0.40540
O2270       O  0.85675522  0.86432790  0.81131772    -0.40610
C2271       C  0.80070705  0.53681391  0.49384134    -0.12890
C2272       C  0.77692512  0.53362529  0.53056224     0.04110
C2273       C  0.73994357  0.01392587  0.52311540    -0.08180
C2274       C  0.72820500  0.99767320  0.48028821    -0.08920
C2275       C  0.75232974  0.00082755  0.44396556    -0.03470
C2276       C  0.78906045  0.52120575  0.45130048     0.03340
N2277       N  0.81515225  0.52555269  0.41616423     0.65850
H2278       H  0.82916919  0.55190105  0.49789051     0.14750
H2279       H  0.69985847  0.98179487  0.47570930     0.14460
N2280       N  0.71388362  0.01030298  0.55795217     0.73550
O2281       O  0.81295551  0.53564078  0.37668085    -0.39900
O2282       O  0.84042094  0.01897200  0.42454392    -0.39840
O2283       O  0.71502075  0.53972245  0.57552185    -0.40540
O2284       O  0.68627403  0.97871889  0.56499414    -0.40610
C2285       C  0.00119627  0.78008485  0.53780039    -0.12890
C2286       C  0.99703524  0.74723867  0.56025234     0.04110
C2287       C  0.50836630  0.72359312  0.53640458    -0.08180
C2288       C  0.52527429  0.73426511  0.49289155    -0.08920
C2289       C  0.53139804  0.76838328  0.47222873    -0.03470
C2290       C  0.51789787  0.79080424  0.49432550     0.03340
N2291       N  0.02036580  0.82420561  0.47274417     0.65850
H2292       H  0.99049199  0.79721368  0.55361352     0.14750
H2293       H  0.53575839  0.71705667  0.47656476     0.14460
N2294       N  0.50424719  0.68934442  0.55649204     0.73550
O2295       O  0.02195123  0.85142740  0.49620760    -0.39900
O2296       O  0.51709999  0.82493749  0.43067820    -0.39840
O2297       O  0.98737753  0.65805858  0.53696014    -0.40540
O2298       O  0.52143470  0.69112361  0.59055121    -0.40610
C2299       C  0.79337045  0.78358997  0.52990359    -0.12890
C2300       C  0.77625897  0.74485572  0.54127126     0.04110
C2301       C  0.74957408  0.71886158  0.51303684    -0.08180
C2302       C  0.74112883  0.73340410  0.47450514    -0.08920
C2303       C  0.75866487  0.77244133  0.46332285    -0.03470
C2304       C  0.78547992  0.79767247  0.49157793     0.03340
N2305       N  0.80659372  0.83753880  0.48083743     0.65850
H2306       H  0.81457293  0.80328569  0.55028148     0.14750
H2307       H  0.72055554  0.71421402  0.45305703     0.14460
N2308       N  0.73148220  0.67821379  0.52153460     0.73550
O2309       O  0.81439422  0.86161452  0.51187774    -0.39900
O2310       O  0.82251697  0.84815383  0.44239074    -0.39840
O2311       O  0.73929851  0.66359805  0.55375275    -0.40540
O2312       O  0.70742739  0.65634889  0.49625179    -0.40610
C2313       C  0.84323854  0.70127248  0.94344449    -0.12890
C2314       C  0.82572695  0.67055759  0.97347309     0.04110
C2315       C  0.79838547  0.63550626  0.95931094    -0.08180
C2316       C  0.79405494  0.63014687  0.91298345    -0.08920
C2317       C  0.81373771  0.66020912  0.88266573    -0.03470
C2318       C  0.83719162  0.69658681  0.89802384     0.03340
N2319       N  0.85644229  0.72858822  0.86799915     0.65850
H2320       H  0.86328488  0.72858562  0.95486469     0.14750
H2321       H  0.77423953  0.60319816  0.90043243     0.14460
N2322       N  0.77310820  0.60700941  0.99071327     0.73550
O2323       O  0.85826959  0.76017114  0.87811114    -0.39900
O2324       O  0.87638636  0.72706219  0.83601857    -0.39840
O2325       O  0.77017605  0.61503898  0.03148377    -0.40540
O2326       O  0.74847925  0.57690728  0.97567280    -0.40610
C2327       C  0.79555638  0.65239815  0.42217629    -0.12890
C2328       C  0.81650774  0.67624396  0.38611286     0.04110
C2329       C  0.85285919  0.70304248  0.39143629    -0.08180
C2330       C  0.86698362  0.70365828  0.43304150    -0.08920
C2331       C  0.84680989  0.67786189  0.46763143    -0.03470
C2332       C  0.81019042  0.65281390  0.46345189     0.03340
N2333       N  0.78761536  0.62798910  0.49995251     0.65850
H2334       H  0.76785821  0.63242115  0.41740339     0.14750
H2335       H  0.89466510  0.72344856  0.43821693     0.14460
N2336       N  0.87692081  0.72685333  0.35495184     0.73550
O2337       O  0.75876143  0.59898899  0.49157652    -0.39900
O2338       O  0.79407453  0.63693019  0.54069057    -0.39840
O2339       O  0.86896480  0.72089184  0.31420662    -0.40540
O2340       O  0.90848154  0.75094192  0.36290792    -0.40610
C2341       C  0.89826407  0.60177912  0.39414252    -0.12890
C2342       C  0.91677457  0.58102915  0.39140889     0.04110
C2343       C  0.92392180  0.57005453  0.34789273    -0.08180
C2344       C  0.91289473  0.58044998  0.30862870    -0.08920
C2345       C  0.89268540  0.59951721  0.31177943    -0.03470
C2346       C  0.88566229  0.61025037  0.35525137     0.03340
N2347       N  0.86480752  0.62914778  0.36067296     0.65850
H2348       H  0.89239521  0.61032956  0.42695581     0.14750
H2349       H  0.91752513  0.57070752  0.27595763     0.14460
N2350       N  0.93903584  0.54512610  0.34297127     0.73550
O2351       O  0.84074992  0.61879665  0.39190265    -0.39900
O2352       O  0.86977703  0.65546302  0.33348602    -0.39840
O2353       O  0.92057024  0.51119910  0.35683805    -0.40540
O2354       O  0.96390331  0.55284437  0.31331133    -0.40610
C2355       C  0.65701046  0.61452491  0.36525976    -0.12890
C2356       C  0.63374528  0.57642385  0.37611557     0.04110
C2357       C  0.62703858  0.54877050  0.34232868    -0.08180
C2358       C  0.64545791  0.56040586  0.29947467    -0.08920
C2359       C  0.66897817  0.59885459  0.28854915    -0.03470
C2360       C  0.67437256  0.62635488  0.32242215     0.03340
N2361       N  0.69746067  0.66636951  0.31519719     0.65850
H2362       H  0.66097192  0.63580521  0.39048391     0.14750
H2363       H  0.64127190  0.53922328  0.27410409     0.14460
N2364       N  0.60088584  0.50942268  0.34983503     0.73550
O2365       O  0.68866795  0.68974723  0.33281083    -0.39900
O2366       O  0.72973393  0.67815505  0.30345438    -0.39840
O2367       O  0.59187004  0.49522823  0.38926823    -0.40540
O2368       O  0.58789520  0.98800919  0.31659858    -0.40610
C2369       C  0.87466442  0.80230396  0.34720615    -0.12890
C2370       C  0.89591289  0.81103194  0.30653453     0.04110
C2371       C  0.93309151  0.83490826  0.30827782    -0.08180
C2372       C  0.94744498  0.84936254  0.35033360    -0.08920
C2373       C  0.92539065  0.84439324  0.38919117    -0.03470
C2374       C  0.88894655  0.81785950  0.38865577     0.03340
N2375       N  0.86628960  0.80578182  0.42965278     0.65850
H2376       H  0.84648836  0.78268119  0.34693986     0.14750
H2377       H  0.97566485  0.86813777  0.35165482     0.14460
N2378       N  0.95604285  0.84846561  0.26791700     0.73550
O2379       O  0.83452770  0.77957017  0.42849655    -0.39900
O2380       O  0.87894668  0.81706591  0.46778517    -0.39840
O2381       O  0.94611875  0.85957075  0.23435511    -0.40540
O2382       O  0.98867288  0.85805708  0.26962972    -0.40610
C2383       C  0.77805731  0.51905171  0.01927702    -0.12890
C2384       C  0.75637374  0.52637465  0.05110098     0.04110
C2385       C  0.72052990  0.51417193  0.04122592    -0.08180
C2386       C  0.70795902  0.99595486  0.00004375    -0.08920
C2387       C  0.72954666  0.98828679  0.96852980    -0.03470
C2388       C  0.76508780  0.99958505  0.97888285     0.03340
N2389       N  0.78775185  0.98970836  0.95072514     0.65850
H2390       H  0.80542517  0.52762743  0.02653746     0.14750
H2391       H  0.68061733  0.98743771  0.99264789     0.14460
N2392       N  0.69686495  0.52147758  0.07077209     0.73550
O2393       O  0.82053944  0.01289138  0.94527659    -0.39900
O2394       O  0.77689849  0.95563536  0.93930146    -0.39840
O2395       O  0.70590382  0.55486611  0.08361791    -0.40540
O2396       O  0.66453804  0.49668219  0.07564213    -0.40610
C2397       C  0.49702799  0.78272885  0.04289514    -0.12890
C2398       C  0.97795138  0.74435031  0.05668736     0.04110
C2399       C  0.97560594  0.71651158  0.02482241    -0.08180
C2400       C  0.99263980  0.72768918  0.98136888    -0.08920
C2401       C  0.51160391  0.76605830  0.96751657    -0.03470
C2402       C  0.51404241  0.79393482  0.99943937     0.03340
N2403       N  0.53517558  0.83383193  0.98977751     0.65850
H2404       H  0.49923755  0.80450026  0.06649601     0.14750
H2405       H  0.99044108  0.70590594  0.95779411     0.14460
N2406       N  0.95451005  0.67665990  0.03458387     0.73550
O2407       O  0.52200347  0.85577410  0.99783526    -0.39900
O2408       O  0.56855757  0.84791481  0.98436757    -0.39840
O2409       O  0.92103133  0.66230127  0.03822755    -0.40540
O2410       O  0.96818271  0.65496707  0.02841450    -0.40610
C2411       C  0.73424536  0.72227907  0.02642038    -0.12890
C2412       C  0.76234781  0.75308408  0.04642481     0.04110
C2413       C  0.77588621  0.78992244  0.02666361    -0.08180
C2414       C  0.76104344  0.79463259  0.98716407    -0.08920
C2415       C  0.73268238  0.76382877  0.96744817    -0.03470
C2416       C  0.71939977  0.72710581  0.98715617     0.03340
N2417       N  0.69200281  0.69422509  0.96663641     0.65850
H2418       H  0.72458209  0.69402986  0.04070059     0.14750
H2419       H  0.77044707  0.82286310  0.97295532     0.14460
N2420       N  0.80322026  0.82300267  0.04728047     0.73550
O2421       O  0.67150950  0.66526216  0.99047262    -0.39900
O2422       O  0.69133575  0.69204831  0.92415528    -0.39840
O2423       O  0.80571172  0.82431929  0.08962776    -0.40540
O2424       O  0.82208279  0.85279210  0.02387240    -0.40610
loop_ 
_geom_bond_atom_site_label_1 
_geom_bond_atom_site_label_2 
_geom_bond_distance 
_geom_bond_site_symmetry_2 
_ccdc_geom_bond_type 
N1            N2   1.316       .  A
N1            N7   1.316       .  A
N1          Mn30   2.181       .  S
N2            C9   1.348       .  A
N3            N5   1.326       .  A
N3            N4   1.325       .  A
N3          Mn19   2.206       .  S
N4           C10   1.348       .  A
N5            N6   1.326       .  A
N5          Mn30   2.210       .  S
N6           C10   1.348       .  A
N7            N8   1.308       .  A
N7          Mn19   2.142       .  S
N8            C9   1.340       .  A
C9          C496   1.435   1_554  S
C10         C580   1.507       .  S
N11          N17   1.314       .  A
N11          N12   1.314       .  A
N11         Mn41   2.201       .  S
N12          C20   1.348       .  A
N13          N14   1.320       .  A
N13          N15   1.314       .  A
N13         Mn19   2.212       .  S
N14          C21   1.348       .  A
N15          N16   1.328       .  A
N15         Mn41   2.214       .  S
N16          C21   1.361       .  A
N17          N18   1.326       .  A
N17         Mn19   2.199       .  S
N18          C20   1.361       .  A
Mn19        Cl43   2.540       .  S
C20         C552   1.493       .  S
C21         C594   1.488       .  S
N22          N23   1.332       .  A
N22          N28   1.317       .  A
N22         Mn30   2.235       .  S
N23          C31   1.364       .  A
N24          N26   1.313       .  A
N24          N25   1.331       .  A
N24         Mn42   2.233       .  S
N25          C32   1.365       .  A
N26          N27   1.315       .  A
N26         Mn30   2.189       .  S
N27          C32   1.345       .  A
N28          N29   1.319       .  A
N28         Mn42   2.222       .  S
N29          C31   1.350       .  A
Mn30        Cl43   2.537       .  S
C31         C527   1.501       .  S
C32         C566   1.498       .  S
N33          N34   1.325       .  A
N33          N39   1.326       .  A
N33         Mn41   2.216       .  S
N34          C44   1.349       .  A
N35          N36   1.315       .  A
N35          N37   1.316       .  A
N35         Mn42   2.191       .  S
N36          C45   1.351       .  A
N37          N38   1.317       .  A
N37         Mn41   2.176       .  S
N38          C45   1.344       .  A
N39          N40   1.324       .  A
N39         Mn42   2.210       .  S
N40          C44   1.348       .  A
Mn41        Cl43   2.537       .  S
Mn42        Cl43   2.539       .  S
C44         C541   1.501       .  S
C45         C510   1.450       .  S
N46          N47   1.336       .  A
N46          N52   1.314       .  A
N46         Mn75   2.255       .  S
N47          C54   1.369       .  A
N48          N50   1.314       .  A
N48          N49   1.333       .  A
N48         Mn64   2.246       .  S
N49          C55   1.368       .  A
N50          N51   1.321       .  A
N50         Mn75   2.214       .  S
N51          C55   1.350       .  A
N52          N53   1.317       .  A
N52         Mn64   2.197       .  S
N53          C54   1.347       .  A
C54         C454   1.517       .  S
C55         C412   1.517       .  S
N56          N62   1.327       .  A
N56          N57   1.324       .  A
N56         Mn86   2.209       .  S
N57          C65   1.350       .  A
N58          N59   1.321       .  A
N58          N60   1.315       .  A
N58         Mn64   2.203       .  S
N59          C66   1.353       .  A
N60          N61   1.308       .  A
N60         Mn86   2.144       .  S
N61          C66   1.337       .  A
N62          N63   1.324       .  A
N62         Mn64   2.204       .  S
N63          C65   1.347       .  A
Mn64        Cl88   2.540       .  S
C65         C468   1.505       .  S
C66         C513   1.443       .  S
N67          N68   1.316       .  A
N67          N73   1.316       .  A
N67         Mn75   2.194       .  S
N68          C76   1.351       .  A
N69          N71   1.328       .  A
N69          N70   1.327       .  A
N69         Mn87   2.222       .  S
N70          C77   1.351       .  A
N71          N72   1.326       .  A
N71         Mn75   2.201       .  S
N72          C77   1.345       .  A
N73          N74   1.306       .  A
N73         Mn87   2.131       .  S
N74          C76   1.339       .  A
Mn75        Cl88   2.533       .  S
C76         C499   1.433       .  S
C77         C426   1.513       .  S
N78          N79   1.318       .  A
N78          N84   1.315       .  A
N78         Mn86   2.216       .  S
N79          C89   1.348       .  A
N80          N81   1.322       .  A
N80          N82   1.314       .  A
N80         Mn87   2.230       .  S
N81          C90   1.353       .  A
N82          N83   1.327       .  A
N82         Mn86   2.209       .  S
N83          C90   1.360       .  A
N84          N85   1.329       .  A
N84         Mn87   2.207       .  S
N85          C89   1.360       .  A
Mn86        Cl88   2.536       .  S
Mn87        Cl88   2.542       .  S
C89         C482   1.486       .  S
C90         C440   1.500       .  S
N91          N92   1.315       .  A
N91          N97   1.315       .  A
N91        Mn120   2.161       .  S
N92          C99   1.349       .  A
N93          N95   1.326       .  A
N93          N94   1.324       .  A
N93        Mn109   2.206       .  S
N94         C100   1.349       .  A
N95          N96   1.330       .  A
N95        Mn120   2.210       .  S
N96         C100   1.350       .  A
N97          N98   1.305       .  A
N97        Mn109   2.144       .  S
N98          C99   1.340       .  A
C99         C342   1.439       .  S
C100        C457   1.511       .  S
N101        N107   1.315       .  A
N101        N102   1.317       .  A
N101       Mn131   2.204       .  S
N102        C110   1.345       .  A
N103        N104   1.312       .  A
N103        N105   1.313       .  A
N103       Mn109   2.196       .  S
N104        C111   1.343       .  A
N105        N106   1.332       .  A
N105       Mn131   2.221       .  S
N106        C111   1.366       .  A
N107        N108   1.328       .  A
N107       Mn109   2.211       .  S
N108        C110   1.361       .  A
Mn109      Cl133   2.511       .  S
C110        C401   1.478       .  S
C111        C485   1.496       .  S
N112        N113   1.333       .  A
N112        N118   1.315       .  A
N112       Mn120   2.228       .  S
N113        C121   1.367       .  A
N114        N116   1.314       .  A
N114        N115   1.331       .  A
N114       Mn132   2.223       .  S
N115        C122   1.364       .  A
N116        N117   1.314       .  A
N116       Mn120   2.188       .  S
N117        C122   1.344       .  A
N118        N119   1.310       .  A
N118       Mn132   2.190       .  S
N119        C121   1.342       .  A
Mn120      Cl133   2.557       .  S
C121        C370   1.492       .  S
C122        C471   1.486       .  S
N123        N124   1.328       .  A
N123        N129   1.327       .  A
N123       Mn131   2.215       .  S
N124        C134   1.348       .  A
N125        N126   1.312       .  A
N125        N127   1.315       .  A
N125       Mn132   2.167       .  S
N126        C135   1.344       .  A
N127        N128   1.310       .  A
N127       Mn131   2.138       .  S
N128        C135   1.341       .  A
N129        N130   1.324       .  A
N129       Mn132   2.206       .  S
N130        C134   1.348       .  A
Mn131      Cl133   2.557       .  S
Mn132      Cl133   2.510       .  S
C134        C387   1.505       .  S
C135        C359   1.427       .  S
N136        N137   1.328       .  A
N136        N142   1.314       .  A
N136       Mn165   2.205       .  S
N137        C144   1.360       .  A
N138        N140   1.314       .  A
N138        N139   1.330       .  A
N138       Mn154   2.211       .  S
N139        C145   1.362       .  A
N140        N141   1.316       .  A
N140       Mn165   2.215       .  S
N141        C145   1.350       .  A
N142        N143   1.321       .  A
N142       Mn154   2.227       .  S
N143        C144   1.351       .  A
C144        C597   1.491       .  S
C145        C317   1.504       .  S
N146        N152   1.326       .  A
N146        N147   1.325       .  A
N146       Mn176   2.206       .  S
N147        C155   1.347       .  A
N148        N149   1.305       .  A
N148        N150   1.317       .  A
N148       Mn154   2.142       .  S
N149        C156   1.340   1_556  A
N150        N151   1.320       .  A
N150       Mn176   2.198       .  S
N151        C156   1.352   1_556  A
N152        N153   1.326       .  A
N152       Mn154   2.207       .  S
N153        C155   1.349       .  A
Mn154      Cl178   2.542       .  S
C155        C583   1.507       .  S
C156        C356   1.456       .  S
N157        N158   1.306       .  A
N157        N163   1.313       .  A
N157       Mn165   2.131       .  S
N158        C166   1.337       .  A
N159        N161   1.326       .  A
N159        N160   1.327       .  A
N159       Mn177   2.206       .  S
N160        C167   1.348       .  A
N161        N162   1.325       .  A
N161       Mn165   2.223       .  S
N162        C167   1.353       .  A
N163        N164   1.314       .  A
N163       Mn177   2.166       .  S
N164        C166   1.348       .  A
Mn165      Cl178   2.528       .  S
C166        C345   1.416       .  S
C167        C328   1.512       .  S
N168        N169   1.315       .  A
N168        N174   1.314       .  A
N168       Mn176   2.195       .  S
N169        C179   1.346       .  A
N170        N171   1.316       .  A
N170        N172   1.316       .  A
N170       Mn177   2.191       .  S
N171        C180   1.343       .  A
N172        N173   1.333       .  A
N172       Mn176   2.248       .  S
N173        C180   1.367       .  A
N174        N175   1.330       .  A
N174       Mn177   2.222       .  S
N175        C179   1.365       .  A
Mn176      Cl178   2.529       .  S
Mn177      Cl178   2.541       .  S
C179        C569   1.495       .  S
C180        C300   1.492       .  S
N181        N182   1.328       .  A
N181        N187   1.314       .  A
N181       Mn210   2.208   1_556  S
N182        C189   1.361       .  A
N183        N185   1.315       .  A
N183        N184   1.330       .  A
N183       Mn199   2.214   1_554  S
N184        C190   1.362       .  A
N185        N186   1.316       .  A
N185      Mn1422   2.209   1_455  S
N186        C190   1.346       .  A
N187        N188   1.322       .  A
N187      Mn1411   2.227       .  S
N188        C189   1.352       .  A
C189        C443   1.498       .  S
C190        C373   1.486       .  S
N191        N197   1.328       .  A
N191        N192   1.327       .  A
N191       Mn221   2.215       .  S
N192        C200   1.347       .  A
N193       N1406   1.303       .  A
N193        N801   1.315       .  A
N193       Mn199   2.131       .  S
N194       N1405   1.303       .  A
N194        C201   1.338       .  A
N195        N196   1.317       .  A
N195        N799   1.315       .  A
N195       Mn221   2.178       .  S
N196       C2019   1.349       .  A
N197        N198   1.327       .  A
N197       Mn805   2.211   1_545  S
N198        C200   1.349       .  A
Mn199      N1399   2.227   1_455  S
Mn199       N803   2.211       .  S
Mn199      Cl829   2.536   1_556  S
C200        C429   1.514       .  S
C201       N2014   1.349       .  A
C201        C275   1.436       .  S
N202        N203   1.312       .  A
N202        N814   1.317       .  A
N202      Mn1422   2.156       .  S
N203        C817   1.341       .  A
N204        N206   1.324       .  A
N204        N205   1.324       .  A
N204       Mn828   2.207       .  S
N205        C212   1.348       .  A
N206        N207   1.321       .  A
N206       Mn210   2.204       .  S
N207        C212   1.349       .  A
N208        N209   1.320       .  A
N208        N808   1.317   1_545  A
N208      Mn1434   2.197       .  S
N209        C211   1.351   1_545  A
Mn210      N1397   2.209       .  S
Mn210      N1414   2.156       .  S
Mn210     Cl2041   2.535       .  S
C211        N809   1.341       .  A
C211        C289   1.450   1_655  S
C212        C398   1.490       .  S
N213        N214   1.319       .  A
N213        N219   1.313       .  A
N213      Mn1433   2.214       .  S
N214        C224   1.349       .  A
N215        N216   1.314       .  A
N215        N217   1.314       .  A
N215      Mn1434   2.192   1_455  S
N216        C225   1.346       .  A
N217        N218   1.335       .  A
N217       Mn221   2.252   1_554  S
N218        C225   1.370       .  A
N219        N220   1.333       .  A
N219       Mn222   2.235   1_556  S
N220        C224   1.368       .  A
Mn221      N1425   2.214       .  S
Mn221      Cl223   2.528   1_556  S
Mn222       N810   2.207   1_545  S
Mn222      N1420   2.197       .  S
Mn222      N1427   2.192       .  S
Mn222     Cl1435   2.541       .  S
Cl223      Mn805   2.536   1_544  S
Cl223     Mn2028   2.535   1_445  S
Cl223     Mn1434   2.541   1_455  S
C224        C415   1.516       .  S
C225        C384   1.514       .  S
N226        N227   1.319       .  A
N226       N2050   1.317   1_455  A
N226       Mn255   2.164       .  S
N227        C840   1.345       .  A
N228        N230   1.327       .  A
N228        N229   1.324       .  A
N228       Mn850   2.208   1_545  S
N229        C235   1.345       .  A
N230        N231   1.328       .  A
N230      Mn1467   2.209       .  S
N231        C235   1.349       .  A
N232        N233   1.310       .  A
N232       N2044   1.317       .  A
N232       Mn244   2.189       .  S
N233       C1446   1.349       .  A
C234        N833   1.345       .  A
C234       N1445   1.349   1_455  A
C234        C286   1.459       .  S
C235        C524   1.496       .  S
N236        N242   1.315       .  A
N236        N237   1.312       .  A
N236       Mn266   2.185       .  S
N237        C245   1.342       .  A
N238        N239   1.317       .  A
N238        N240   1.314       .  A
N238       Mn244   2.221       .  S
N239        C246   1.349       .  A
N240        N241   1.327       .  A
N240       Mn266   2.185       .  S
N241        C246   1.357       .  A
N242        N243   1.336       .  A
N242       Mn244   2.252       .  S
N243        C245   1.370       .  A
Mn244       N834   2.208       .  S
Mn244     Cl2086   2.509       .  S
C245        C331   1.503       .  S
C246        C555   1.476       .  S
N247        N248   1.333       .  A
N247        N253   1.315       .  A
N247       Mn255   2.237       .  S
N248        C256   1.367       .  A
N249        N251   1.314       .  A
N249        N250   1.331       .  A
N249       Mn267   2.226       .  S
N250        C257   1.364       .  A
N251        N252   1.313       .  A
N251       Mn255   2.178       .  S
N252        C257   1.339       .  A
N253        N254   1.313       .  A
N253       Mn267   2.188       .  S
N254        C256   1.342       .  A
Mn255      N1442   2.209   1_455  S
Mn255      Cl268   2.562   1_455  S
C256        C314   1.487       .  S
C257        C538   1.480       .  S
N258        N259   1.328       .  A
N258        N264   1.325       .  A
N258      Mn1478   2.209   1_455  S
N259        C269   1.350       .  A
N260        N261   1.311   1_565  A
N260       N2080   1.312   1_455  A
N260       Mn267   2.174   1_565  S
N261        C270   1.350   1_445  A
N262        N263   1.311       .  A
N262       N2078   1.312       .  A
N262       Mn266   2.126       .  S
N263       C2088   1.340       .  A
N264        N265   1.323       .  A
N264       Mn873   2.208       .  S
N265        C269   1.349       .  A
Mn266      N1470   2.209       .  S
Mn266     Cl2086   2.555       .  S
Mn267       N870   2.208   1_545  S
Mn267      Cl268   2.503   1_455  S
Cl268     Mn2062   2.509   1_545  S
Cl268     Mn2084   2.555   1_545  S
C269        C303   1.510       .  S
C270       N2081   1.340       .  A
C270        C272   1.420       .  S
C271        C272   1.391   1_455  A
C271        C882   1.375       .  A
C271        H278   1.085       .  S
C272       C1485   1.406   1_565  A
C273        C274   1.397       .  A
C273       C1484   1.406   1_545  A
C273        N280   1.445       .  S
C274        C881   1.401       .  A
C274        H279   1.082       .  S
C275        C880   1.401       .  A
C275       C1488   1.408       .  A
C276        C877   1.375       .  A
C276       C1487   1.408       .  A
C276        N277   1.437       .  S
N277        O281   1.262       .  A
N277        O282   1.263       .  A
N280        O283   1.263       .  A
N280        O284   1.262       .  A
C285        C290   1.403       .  A
C285        C892   1.400       .  A
C285        H292   1.083       .  S
C286        C891   1.400       .  A
C286       C1499   1.403   1_455  A
C287       C1498   1.403       .  A
C287       C1500   1.381       .  A
C287        N294   1.425       .  S
C288       C1499   1.381       .  A
C288        C895   1.392   1_655  A
C288       H1505   1.083       .  S
C289        C290   1.413   1_565  A
C289        C894   1.392   1_455  A
C290        N291   1.442       .  S
N291        O295   1.262       .  A
N291        O296   1.262       .  A
H293       C1500   1.083       .  S
N294        O297   1.262       .  A
N294        O298   1.262       .  A
C299        C300   1.404       .  A
C299        C304   1.415       .  A
C299        H306   1.083       .  S
C300        C301   1.419       .  A
C301        C302   1.410       .  A
C301        N308   1.444       .  S
C302        C303   1.409       .  A
C302        H307   1.081       .  S
C303        C304   1.418       .  A
C304        N305   1.428       .  S
N305        O309   1.261       .  A
N305        O310   1.262       .  A
N308        O311   1.261       .  A
N308        O312   1.263       .  A
C313        C314   1.406       .  A
C313        C318   1.417       .  A
C313        H320   1.084       .  S
C314        C315   1.413       .  A
C315        C316   1.402       .  A
C315        N322   1.442       .  S
C316        C317   1.408       .  A
C316        H321   1.083       .  S
C317        C318   1.424       .  A
C318        N319   1.436       .  S
N319        O323   1.263       .  A
N319        O324   1.260       .  A
N322        O325   1.263       .  A
N322        O326   1.263       .  A
C327        C328   1.404       .  A
C327        C332   1.404       .  A
C327        H334   1.082       .  S
C328        C329   1.428       .  A
C329        C330   1.420       .  A
C329        N336   1.434       .  S
C330        C331   1.405       .  A
C330        H335   1.083       .  S
C331        C332   1.421       .  A
C332        N333   1.438       .  S
N333        O337   1.263       .  A
N333        O338   1.262       .  A
N336        O339   1.262       .  A
N336        O340   1.263       .  A
C341        C342   1.399       .  A
C341        C346   1.377       .  A
C341        H348   1.084       .  S
C342        C343   1.408       .  A
C343        C344   1.392       .  A
C343        N350   1.439       .  S
C344        C345   1.396       .  A
C344        H349   1.084       .  S
C345        C346   1.404       .  A
C346        N347   1.441       .  S
N347        O351   1.263       .  A
N347        O352   1.262       .  A
N350        O353   1.263       .  A
N350        O354   1.262       .  A
C355        C356   1.404       .  A
C355        C360   1.384       .  A
C355        H362   1.084       .  S
C356        C357   1.405       .  A
C357        C358   1.390       .  A
C357        N364   1.430       .  S
C358        C359   1.395       .  A
C358        H363   1.083       .  S
C359        C360   1.402       .  A
C360        N361   1.438       .  S
N361        O365   1.262       .  A
N361        O366   1.259       .  A
N364        O367   1.263       .  A
N364        O368   1.259       .  A
C369        C370   1.406       .  A
C369        C374   1.420       .  A
C369        H376   1.083       .  S
C370        C371   1.421       .  A
C371        C372   1.397       .  A
C371        N378   1.442       .  S
C372        C373   1.398       .  A
C372        H377   1.085       .  S
C373        C374   1.425       .  A
C374        N375   1.444       .  S
N375        O380   1.262       .  A
N375        O985   1.263       .  A
N378        O381   1.263       .  A
N378        O382   1.263       .  A
O379        N981   1.263   1_545  A
C383        C384   1.415       .  A
C383        C388   1.408       .  A
C383        H390   1.082       .  S
C384        C385   1.419       .  A
C385        C386   1.421       .  A
C385        N392   1.436       .  S
C386        C387   1.415       .  A
C386        H391   1.083       .  S
C387        C388   1.412       .  A
C388        N389   1.440       .  S
N389        O393   1.263       .  A
N389        O394   1.263       .  A
N392        O395   1.262       .  A
N392        O396   1.263       .  A
C397        C398   1.409       .  A
C397        C402   1.405       .  A
C397        H404   1.083       .  S
C398        C399   1.417       .  A
C399        C400   1.414       .  A
C399        N406   1.442       .  S
C400        C401   1.406       .  A
C400        H405   1.083       .  S
C401        C402   1.412       .  A
C402        N403   1.444       .  S
N403        O407   1.263       .  A
N403        O408   1.263       .  A
N406        O409   1.263       .  A
N406        O410   1.263       .  A
C411        C412   1.405       .  A
C411        C416   1.415       .  A
C411        H418   1.083       .  S
C412        C413   1.425       .  A
C413        C414   1.414       .  A
C413        N420   1.431       .  S
C414        C415   1.405       .  A
C414        H419   1.083       .  S
C415        C416   1.427       .  A
C416        N417   1.434       .  S
N417        O421   1.263       .  A
N417        O422   1.263       .  A
N420        O423   1.262       .  A
N420        O424   1.262       .  A
C425        C426   1.404       .  A
C425        C430   1.413       .  A
C425        H432   1.083       .  S
C426        C427   1.426       .  A
C427        C428   1.414       .  A
C427        N434   1.434       .  S
C428        C429   1.407       .  A
C428        H433   1.084       .  S
C429        C430   1.428       .  A
C430        N431   1.436       .  S
N431        O435   1.263       .  A
N431        O436   1.261       .  A
N434        O437   1.261       .  A
N434        O438   1.262       .  A
C439        C440   1.405       .  A
C439        C444   1.412       .  A
C439        H446   1.083       .  S
C440        C441   1.420       .  A
C441        C442   1.412       .  A
C441        N448   1.434       .  S
C442        C443   1.404       .  A
C442        H447   1.083       .  S
C443        C444   1.419       .  A
C444        N445   1.438       .  S
N445        O449   1.263       .  A
N445        O450   1.262       .  A
N448        O451   1.262       .  A
N448        O452   1.262       .  A
C453        C454   1.413       .  A
C453        C458   1.407       .  A
C453        H460   1.083       .  S
C454       C1061   1.420       .  A
C455        C456   1.423       .  A
C455       C1060   1.420       .  A
C455        N462   1.434       .  S
C456        C457   1.415       .  A
C456        H461   1.083       .  S
C457       C1064   1.411       .  A
C458       C1063   1.411       .  A
C458        N459   1.434       .  S
N459        O463   1.263       .  A
N459       O1070   1.261       .  A
N462        O466   1.263       .  A
N462       O1071   1.262       .  A
O464       N1065   1.261       .  A
O465       N1068   1.262       .  A
C467        C468   1.407       .  A
C467       C1684   1.406       .  A
C467        H474   1.080       .  S
C468       C1681   1.419       .  A
C469        C470   1.409       .  A
C469       C1680   1.419   1_455  A
C469        N476   1.426       .  S
C470        C471   1.401       .  A
C470        H475   1.083       .  S
C471        C472   1.416       .  A
C472       C1679   1.406       .  A
C472       N1685   1.441       .  S
N473       C1684   1.441       .  S
N473        O477   1.262       .  A
N473       O1690   1.263       .  A
N476        O480   1.260       .  A
N476       O1691   1.262   1_455  A
O478       N1685   1.263       .  A
O479       N1688   1.262       .  A
C481        C482   1.398       .  A
C481        C486   1.396       .  A
C481        H488   1.084       .  S
C482        C483   1.427       .  A
C483        C484   1.422       .  A
C483        N490   1.448       .  S
C484        C485   1.407       .  A
C484        H489   1.083       .  S
C485        C486   1.420       .  A
C486        N487   1.438       .  S
N487        O491   1.263       .  A
N487        O492   1.263       .  A
N490        O493   1.261       .  A
N490        O494   1.263       .  A
C495        C496   1.392       .  A
C495        C500   1.377       .  A
C495        H502   1.084       .  S
C496        C497   1.411       .  A
C497        C498   1.395       .  A
C497        N504   1.441       .  S
C498        C499   1.392       .  A
C498        H503   1.084       .  S
C499        C500   1.406       .  A
C500        N501   1.431       .  S
N501        O505   1.262       .  A
N501        O506   1.262       .  A
N504        O507   1.262   1_556  A
N504        O508   1.261       .  A
C509        C510   1.400       .  A
C509        C514   1.398       .  A
C509        H516   1.084       .  S
C510        C511   1.423       .  A
C511        C512   1.394       .  A
C511        N518   1.451       .  S
C512        C513   1.393       .  A
C512        H517   1.084       .  S
C513        C514   1.413       .  A
C514        N515   1.444       .  S
N515        O519   1.263       .  A
N515        O520   1.262       .  A
N518        O521   1.261       .  A
N518        O522   1.263       .  A
C523        C524   1.391       .  A
C523        C528   1.405       .  A
C523        H530   1.084       .  S
C524        C525   1.423       .  A
C525        C526   1.413       .  A
C525        N532   1.425       .  S
C526        C527   1.396       .  A
C526        H531   1.084       .  S
C527        C528   1.416       .  A
C528        N529   1.418       .  S
N529        O533   1.260       .  A
N529        O534   1.259       .  A
N532        O535   1.261       .  A
N532        O536   1.262       .  A
C537        C538   1.396       .  A
C537        C542   1.402       .  A
C537        H544   1.085       .  S
C538        C539   1.420       .  A
C539        C540   1.417       .  A
C539        N546   1.444       .  S
C540        C541   1.409       .  A
C540        H545   1.083       .  S
C541        C542   1.426       .  A
C542        N543   1.436       .  S
N543        O547   1.261       .  A
N543        O548   1.257       .  A
N546        O549   1.262   1_545  A
N546       O1156   1.263   1_545  A
O550       N1152   1.263       .  A
C551        C552   1.411       .  A
C551        C556   1.403       .  A
C551        H558   1.081       .  S
C552        C553   1.416       .  A
C553        C554   1.411       .  A
C553        N560   1.439       .  S
C554        C555   1.402       .  A
C554        H559   1.079       .  S
C555        C556   1.408       .  A
C556        N557   1.446       .  S
N557        O561   1.263       .  A
N557        O562   1.262       .  A
N560        O563   1.262       .  A
N560        O564   1.262       .  A
C565        C566   1.413       .  A
C565       C1176   1.409   1_544  A
C565        H572   1.084       .  S
C566        C567   1.415       .  A
C567       C1174   1.410   1_545  A
C567        N574   1.435       .  S
C568        C569   1.411   1_554  A
C568       C1173   1.410       .  A
C568        H573   1.084   1_554  S
C569        C570   1.413       .  A
C570       C1171   1.409   1_556  A
C570        N571   1.436       .  S
N571        O575   1.262       .  A
N571        O576   1.262       .  A
N574        O577   1.262       .  A
N574        O578   1.262   1_545  A
C579        C584   1.411   1_654  A
C579       C1792   1.405       .  A
C579        H586   1.083       .  S
C580        C581   1.423       .  A
C580       C1791   1.405       .  A
C581        C582   1.411   1_554  A
C581        N588   1.432       .  S
C582       C1795   1.405       .  A
C582        H587   1.083       .  S
C583        C584   1.424       .  A
C583       C1794   1.405   1_455  A
C584        N585   1.433       .  S
N585        O589   1.262       .  A
N585        O590   1.262       .  A
N588        O591   1.262       .  A
N588        O592   1.262       .  A
C593        C594   1.402       .  A
C593        C598   1.410   1_554  A
C593        H600   1.083       .  S
C594        C595   1.420       .  A
C595        C596   1.414   1_554  A
C595        N602   1.442       .  S
C596        C597   1.403       .  A
C596        H601   1.083       .  S
C597        C598   1.417       .  A
C598        N599   1.437       .  S
N599        O603   1.262       .  A
N599        O604   1.261       .  A
N602        O605   1.263       .  A
N602        O606   1.262       .  A
N607        N608   1.316       .  A
N607        N613   1.316       .  A
N607       Mn636   2.181       .  S
N608        C615   1.348       .  A
N609        N611   1.326       .  A
N609        N610   1.325       .  A
N609       Mn625   2.206       .  S
N610        C616   1.348       .  A
N611        N612   1.326       .  A
N611       Mn636   2.210       .  S
N612        C616   1.348       .  A
N613        N614   1.308       .  A
N613       Mn625   2.142       .  S
N614        C615   1.340       .  A
C615       C1102   1.435   1_554  S
C616       C1186   1.507       .  S
N617        N623   1.314       .  A
N617        N618   1.314       .  A
N617       Mn647   2.201       .  S
N618        C626   1.348       .  A
N619        N620   1.320       .  A
N619        N621   1.314       .  A
N619       Mn625   2.212       .  S
N620        C627   1.348       .  A
N621        N622   1.328       .  A
N621       Mn647   2.214       .  S
N622        C627   1.361       .  A
N623        N624   1.326       .  A
N623       Mn625   2.199       .  S
N624        C626   1.361       .  A
Mn625      Cl649   2.540       .  S
C626       C1158   1.493       .  S
C627       C1200   1.488       .  S
N628        N629   1.332       .  A
N628        N634   1.317       .  A
N628       Mn636   2.235       .  S
N629        C637   1.364       .  A
N630        N632   1.313       .  A
N630        N631   1.331       .  A
N630       Mn648   2.233       .  S
N631        C638   1.365       .  A
N632        N633   1.315       .  A
N632       Mn636   2.189       .  S
N633        C638   1.345       .  A
N634        N635   1.319       .  A
N634       Mn648   2.222       .  S
N635        C637   1.350       .  A
Mn636      Cl649   2.537       .  S
C637       C1133   1.501       .  S
C638       C1172   1.498       .  S
N639        N640   1.325       .  A
N639        N645   1.326       .  A
N639       Mn647   2.216       .  S
N640        C650   1.349       .  A
N641        N642   1.315       .  A
N641        N643   1.316       .  A
N641       Mn648   2.191       .  S
N642        C651   1.351       .  A
N643        N644   1.317       .  A
N643       Mn647   2.176       .  S
N644        C651   1.344       .  A
N645        N646   1.324       .  A
N645       Mn648   2.210       .  S
N646        C650   1.348       .  A
Mn647      Cl649   2.537       .  S
Mn648      Cl649   2.539       .  S
C650       C1147   1.501       .  S
C651       C1116   1.450       .  S
N652        N653   1.336       .  A
N652        N658   1.314       .  A
N652       Mn681   2.255       .  S
N653        C660   1.369       .  A
N654        N656   1.314       .  A
N654        N655   1.333       .  A
N654       Mn670   2.246       .  S
N655        C661   1.368       .  A
N656        N657   1.321       .  A
N656       Mn681   2.214       .  S
N657        C661   1.350       .  A
N658        N659   1.317       .  A
N658       Mn670   2.197       .  S
N659        C660   1.347       .  A
C660       C1060   1.517       .  S
C661       C1018   1.517       .  S
N662        N668   1.327       .  A
N662        N663   1.324       .  A
N662       Mn692   2.209       .  S
N663        C671   1.350       .  A
N664        N665   1.321       .  A
N664        N666   1.315       .  A
N664       Mn670   2.203       .  S
N665        C672   1.353       .  A
N666        N667   1.308       .  A
N666       Mn692   2.144       .  S
N667        C672   1.337       .  A
N668        N669   1.324       .  A
N668       Mn670   2.204       .  S
N669        C671   1.347       .  A
Mn670      Cl694   2.539       .  S
C671       C1074   1.505       .  S
C672       C1119   1.442       .  S
N673        N674   1.316       .  A
N673        N679   1.316       .  A
N673       Mn681   2.194       .  S
N674        C682   1.351       .  A
N675        N677   1.328       .  A
N675        N676   1.327       .  A
N675       Mn693   2.222       .  S
N676        C683   1.351       .  A
N677        N678   1.326       .  A
N677       Mn681   2.201       .  S
N678        C683   1.345       .  A
N679        N680   1.306       .  A
N679       Mn693   2.131       .  S
N680        C682   1.339       .  A
Mn681      Cl694   2.533       .  S
C682       C1105   1.433       .  S
C683       C1032   1.513       .  S
N684        N685   1.318       .  A
N684        N690   1.315       .  A
N684       Mn692   2.216       .  S
N685        C695   1.348       .  A
N686        N687   1.322       .  A
N686        N688   1.314       .  A
N686       Mn693   2.230       .  S
N687        C696   1.353       .  A
N688        N689   1.327       .  A
N688       Mn692   2.209       .  S
N689        C696   1.360       .  A
N690        N691   1.329       .  A
N690       Mn693   2.207       .  S
N691        C695   1.360       .  A
Mn692      Cl694   2.537       .  S
Mn693      Cl694   2.542       .  S
C695       C1088   1.486       .  S
C696       C1046   1.500       .  S
N697        N698   1.315       .  A
N697        N703   1.315       .  A
N697       Mn726   2.161       .  S
N698        C705   1.349       .  A
N699        N701   1.326       .  A
N699        N700   1.324       .  A
N699       Mn715   2.206       .  S
N700        C706   1.349       .  A
N701        N702   1.330       .  A
N701       Mn726   2.210       .  S
N702        C706   1.350       .  A
N703        N704   1.305       .  A
N703       Mn715   2.144       .  S
N704        C705   1.340       .  A
C705        C948   1.439       .  S
C706       C1063   1.511   1_565  S
N707        N713   1.315       .  A
N707        N708   1.317       .  A
N707       Mn737   2.204       .  S
N708        C716   1.345       .  A
N709        N710   1.312       .  A
N709        N711   1.313       .  A
N709       Mn715   2.196       .  S
N710        C717   1.343       .  A
N711        N712   1.332       .  A
N711       Mn737   2.221       .  S
N712        C717   1.366       .  A
N713        N714   1.328       .  A
N713       Mn715   2.211       .  S
N714        C716   1.361       .  A
Mn715      Cl739   2.511       .  S
C716       C1007   1.478       .  S
C717       C1091   1.496       .  S
N718        N719   1.333       .  A
N718        N724   1.315       .  A
N718       Mn726   2.228       .  S
N719        C727   1.367       .  A
N720        N722   1.314       .  A
N720        N721   1.331       .  A
N720       Mn738   2.223       .  S
N721        C728   1.364       .  A
N722        N723   1.314       .  A
N722       Mn726   2.188       .  S
N723        C728   1.344       .  A
N724        N725   1.310       .  A
N724       Mn738   2.190       .  S
N725        C727   1.342       .  A
Mn726      Cl739   2.557       .  S
C727        C976   1.492       .  S
C728       C1077   1.486       .  S
N729        N730   1.328       .  A
N729        N735   1.327       .  A
N729       Mn737   2.215       .  S
N730        C740   1.348       .  A
N731        N732   1.312       .  A
N731        N733   1.315       .  A
N731       Mn738   2.167       .  S
N732        C741   1.344       .  A
N733        N734   1.310       .  A
N733       Mn737   2.138       .  S
N734        C741   1.341       .  A
N735        N736   1.324       .  A
N735       Mn738   2.206       .  S
N736        C740   1.348       .  A
Mn737      Cl739   2.557       .  S
Mn738      Cl739   2.510       .  S
C740        C993   1.505       .  S
C741        C965   1.427       .  S
N742        N743   1.328       .  A
N742        N748   1.314       .  A
N742       Mn771   2.205       .  S
N743        C750   1.360       .  A
N744        N746   1.314       .  A
N744        N745   1.330       .  A
N744       Mn760   2.211       .  S
N745        C751   1.362       .  A
N746        N747   1.316       .  A
N746       Mn771   2.215       .  S
N747        C751   1.350       .  A
N748        N749   1.321       .  A
N748       Mn760   2.227       .  S
N749        C750   1.351       .  A
C750       C1203   1.491       .  S
C751        C923   1.504       .  S
N752        N758   1.326       .  A
N752        N753   1.325       .  A
N752       Mn782   2.206       .  S
N753        C761   1.347       .  A
N754        N755   1.305       .  A
N754        N756   1.317       .  A
N754       Mn760   2.142       .  S
N755        C762   1.340   1_556  A
N756        N757   1.320       .  A
N756       Mn782   2.198       .  S
N757        C762   1.352   1_556  A
N758        N759   1.326       .  A
N758       Mn760   2.207       .  S
N759        C761   1.349       .  A
Mn760      Cl784   2.542       .  S
C761       C1189   1.507       .  S
C762        C962   1.456       .  S
N763        N764   1.306       .  A
N763        N769   1.313       .  A
N763       Mn771   2.131       .  S
N764        C772   1.337       .  A
N765        N767   1.326       .  A
N765        N766   1.327       .  A
N765       Mn783   2.206       .  S
N766        C773   1.348       .  A
N767        N768   1.325       .  A
N767       Mn771   2.223       .  S
N768        C773   1.353       .  A
N769        N770   1.314       .  A
N769       Mn783   2.166       .  S
N770        C772   1.348       .  A
Mn771      Cl784   2.528       .  S
C772        C951   1.416       .  S
C773        C934   1.512       .  S
N774        N775   1.315       .  A
N774        N780   1.314       .  A
N774       Mn782   2.195       .  S
N775        C785   1.346       .  A
N776        N777   1.316       .  A
N776        N778   1.316       .  A
N776       Mn783   2.191       .  S
N777        C786   1.343       .  A
N778        N779   1.333       .  A
N778       Mn782   2.248       .  S
N779        C786   1.367       .  A
N780        N781   1.330       .  A
N780       Mn783   2.222       .  S
N781        C785   1.365       .  A
Mn782      Cl784   2.529       .  S
Mn783      Cl784   2.541       .  S
C785       C1175   1.495       .  S
C786        C906   1.492       .  S
N787        N788   1.328       .  A
N787        N793   1.314       .  A
N787       Mn816   2.208   1_556  S
N788        C795   1.361       .  A
N789        N791   1.315       .  A
N789        N790   1.330       .  A
N789       Mn805   2.214   1_554  S
N790        C796   1.362       .  A
N791        N792   1.316       .  A
N791      Mn2028   2.209   1_455  S
N792        C796   1.346       .  A
N793        N794   1.322       .  A
N793      Mn2017   2.227       .  S
N794        C795   1.352       .  A
C795       C1049   1.498       .  S
C796        C979   1.486       .  S
N797        N803   1.328       .  A
N797        N798   1.327       .  A
N797       Mn827   2.215       .  S
N798        C806   1.347       .  A
N799       N2012   1.303   1_545  A
N799       Mn805   2.131   1_545  S
N800       N2011   1.303   1_565  A
N800        C807   1.339   1_565  A
N801        N802   1.317       .  A
N801       Mn827   2.178       .  S
N802       C1413   1.349       .  A
N803        N804   1.327       .  A
N804        C806   1.349       .  A
Mn805      N2005   2.227   1_455  S
C806       C1035   1.514       .  S
C807       N1408   1.349       .  A
C807        C881   1.436       .  S
N808        N809   1.312       .  A
N808      Mn2028   2.156       .  S
N810        N812   1.324       .  A
N810        N811   1.324       .  A
N811        C818   1.348       .  A
N812        N813   1.321       .  A
N812       Mn816   2.204       .  S
N813        C818   1.349       .  A
N814        N815   1.320       .  A
N814      Mn2040   2.197       .  S
N815        C817   1.351       .  A
Mn816      N2003   2.209       .  S
Mn816      N2020   2.156       .  S
Mn816     Cl1435   2.535   1_565  S
C817        C895   1.450   1_655  S
C818       C1004   1.490       .  S
N819        N820   1.319       .  A
N819        N825   1.313       .  A
N819      Mn2039   2.214       .  S
N820        C830   1.349       .  A
N821        N822   1.314       .  A
N821        N823   1.314       .  A
N821      Mn2040   2.192   1_455  S
N822        C831   1.346       .  A
N823        N824   1.335       .  A
N823       Mn827   2.252   1_554  S
N824        C831   1.370       .  A
N825        N826   1.333       .  A
N825       Mn828   2.235   1_556  S
N826        C830   1.368       .  A
Mn827      N2031   2.214       .  S
Mn827      Cl829   2.528   1_556  S
Mn828      N2026   2.197       .  S
Mn828      N2033   2.192       .  S
Mn828     Cl2041   2.541       .  S
Cl829     Mn1422   2.535   1_455  S
Cl829     Mn2040   2.541   1_455  S
C830       C1021   1.516       .  S
C831        C990   1.514       .  S
N832        N833   1.319       .  A
N832       N1444   1.317   1_455  A
N832       Mn861   2.164       .  S
N834        N836   1.327       .  A
N834        N835   1.324       .  A
N835        C841   1.345       .  A
N836        N837   1.328       .  A
N836      Mn2073   2.209       .  S
N837        C841   1.349       .  A
N838       N1438   1.317       .  A
N838        N839   1.310   1_545  A
N838       Mn850   2.189   1_545  S
N839       C2052   1.349   1_565  A
C840       N2051   1.349   1_445  A
C840        C892   1.459       .  S
C841       C1130   1.496       .  S
N842        N848   1.315       .  A
N842        N843   1.312       .  A
N842       Mn872   2.185       .  S
N843        C851   1.342       .  A
N844        N845   1.317       .  A
N844        N846   1.314       .  A
N844       Mn850   2.221       .  S
N845        C852   1.349       .  A
N846        N847   1.327       .  A
N846       Mn872   2.185       .  S
N847        C852   1.357       .  A
N848        N849   1.336       .  A
N848       Mn850   2.252       .  S
N849        C851   1.370       .  A
Mn850     Cl1480   2.509   1_565  S
C851        C937   1.503       .  S
C852       C1161   1.476       .  S
N853        N854   1.333       .  A
N853        N859   1.315       .  A
N853       Mn861   2.237       .  S
N854        C862   1.367       .  A
N855        N857   1.314       .  A
N855        N856   1.331       .  A
N855       Mn873   2.226       .  S
N856        C863   1.364       .  A
N857        N858   1.313       .  A
N857       Mn861   2.178       .  S
N858        C863   1.339       .  A
N859        N860   1.313       .  A
N859       Mn873   2.188       .  S
N860        C862   1.342       .  A
Mn861      N2048   2.209   1_455  S
Mn861      Cl874   2.562   1_455  S
C862        C920   1.487       .  S
C863       C1144   1.480       .  S
N864        N865   1.328       .  A
N864        N870   1.325       .  A
N864      Mn2084   2.209   1_455  S
N865        C875   1.350       .  A
N866        N867   1.311       .  A
N866       N1474   1.312   1_455  A
N866       Mn873   2.174       .  S
N867        C876   1.350   1_455  A
N868       N1472   1.312       .  A
N868        N869   1.311       .  A
N868       Mn872   2.126       .  S
N869       C1482   1.340       .  A
N870        N871   1.323       .  A
N871        C875   1.349       .  A
Mn872      N2076   2.209       .  S
Mn872     Cl1480   2.555   1_565  S
Mn873      Cl874   2.503   1_455  S
Cl874     Mn1456   2.509       .  S
Cl874     Mn1478   2.555       .  S
C875        C909   1.510       .  S
C876       N1475   1.340       .  A
C876        C878   1.420       .  S
C877        C878   1.391   1_455  A
C877        H884   1.085       .  S
C878       C2091   1.406       .  A
C879       C2090   1.406       .  A
C879        C880   1.397       .  A
C879        N886   1.445       .  S
C880        H885   1.082       .  S
C881       C2094   1.408   1_545  A
C882       C2093   1.408   1_565  A
C882        N883   1.437       .  S
N883        O887   1.262       .  A
N883        O888   1.263       .  A
N886        O889   1.263       .  A
N886        O890   1.262       .  A
C891        C896   1.403       .  A
C891        H898   1.083       .  S
C892       C2105   1.403   1_445  A
C893       C2104   1.403   1_565  A
C893       C2106   1.381       .  A
C893        N900   1.425       .  S
C894       C2105   1.381       .  A
C894       H2111   1.083       .  S
C895        C896   1.413       .  A
C896        N897   1.442       .  S
N897        O901   1.262       .  A
N897        O902   1.262       .  A
H899       C2106   1.083       .  S
N900        O903   1.262       .  A
N900        O904   1.262       .  A
C905        C906   1.404       .  A
C905        C910   1.415       .  A
C905        H912   1.083       .  S
C906        C907   1.419       .  A
C907        C908   1.410       .  A
C907        N914   1.444       .  S
C908        C909   1.409       .  A
C908        H913   1.081       .  S
C909        C910   1.418       .  A
C910        N911   1.428       .  S
N911        O915   1.261       .  A
N911        O916   1.262       .  A
N914        O917   1.261       .  A
N914        O918   1.263   1_565  A
C919        C920   1.406       .  A
C919        C924   1.417       .  A
C919        H926   1.084       .  S
C920        C921   1.413       .  A
C921        C922   1.402       .  A
C921        N928   1.442       .  S
C922        C923   1.408       .  A
C922        H927   1.083       .  S
C923        C924   1.424       .  A
C924        N925   1.436       .  S
N925        O929   1.263       .  A
N925        O930   1.260       .  A
N928        O931   1.263       .  A
N928        O932   1.263       .  A
C933        C934   1.404       .  A
C933        C938   1.404       .  A
C933        H940   1.082       .  S
C934        C935   1.428       .  A
C935        C936   1.420       .  A
C935        N942   1.434       .  S
C936        C937   1.405       .  A
C936        H941   1.083       .  S
C937        C938   1.421       .  A
C938        N939   1.438       .  S
N939        O943   1.263       .  A
N939        O944   1.262       .  A
N942        O945   1.262       .  A
N942        O946   1.263       .  A
C947        C948   1.399       .  A
C947        C952   1.377       .  A
C947        H954   1.084       .  S
C948        C949   1.408       .  A
C949        C950   1.392       .  A
C949        N956   1.440       .  S
C950        C951   1.396       .  A
C950        H955   1.084       .  S
C951        C952   1.404       .  A
C952        N953   1.441       .  S
N953        O957   1.263       .  A
N953        O958   1.262       .  A
N956        O959   1.263       .  A
N956        O960   1.262       .  A
C961        C962   1.404       .  A
C961        C966   1.384       .  A
C961        H968   1.084       .  S
C962        C963   1.405       .  A
C963        C964   1.390       .  A
C963        N970   1.430       .  S
C964        C965   1.395       .  A
C964        H969   1.083       .  S
C965        C966   1.402       .  A
C966        N967   1.438       .  S
N967        O971   1.262       .  A
N967        O972   1.259       .  A
N970        O973   1.263       .  A
N970        O974   1.259       .  A
C975        C976   1.406       .  A
C975        C980   1.420       .  A
C975        H982   1.083       .  S
C976        C977   1.421       .  A
C977        C978   1.397       .  A
C977        N984   1.442       .  S
C978        C979   1.398       .  A
C978        H983   1.085       .  S
C979        C980   1.425       .  A
C980        N981   1.444       .  S
N981        O986   1.262   1_565  A
N984        O987   1.263       .  A
N984        O988   1.263       .  A
C989        C990   1.415       .  A
C989        C994   1.408       .  A
C989        H996   1.082       .  S
C990        C991   1.419       .  A
C991        C992   1.421       .  A
C991        N998   1.436       .  S
C992        C993   1.415       .  A
C992        H997   1.083       .  S
C993        C994   1.412       .  A
C994        N995   1.440       .  S
N995        O999   1.263       .  A
N995       O1000   1.263       .  A
N998       O1001   1.262       .  A
N998       O1002   1.263       .  A
C1003      C1004   1.409       .  A
C1003      C1008   1.405       .  A
C1003      H1010   1.083       .  S
C1004      C1005   1.417       .  A
C1005      C1006   1.414       .  A
C1005      N1012   1.442       .  S
C1006      C1007   1.406       .  A
C1006      H1011   1.083       .  S
C1007      C1008   1.412       .  A
C1008      N1009   1.444       .  S
N1009      O1013   1.263       .  A
N1009      O1014   1.263       .  A
N1012      O1015   1.263       .  A
N1012      O1016   1.263       .  A
C1017      C1018   1.405       .  A
C1017      C1022   1.415       .  A
C1017      H1024   1.083       .  S
C1018      C1019   1.425       .  A
C1019      C1020   1.414       .  A
C1019      N1026   1.431       .  S
C1020      C1021   1.405       .  A
C1020      H1025   1.083       .  S
C1021      C1022   1.427       .  A
C1022      N1023   1.434       .  S
N1023      O1027   1.263       .  A
N1023      O1028   1.263       .  A
N1026      O1029   1.262       .  A
N1026      O1030   1.262       .  A
C1031      C1032   1.404       .  A
C1031      C1036   1.413       .  A
C1031      H1038   1.083       .  S
C1032      C1033   1.426       .  A
C1033      C1034   1.414       .  A
C1033      N1040   1.434       .  S
C1034      C1035   1.407       .  A
C1034      H1039   1.084       .  S
C1035      C1036   1.428       .  A
C1036      N1037   1.436       .  S
N1037      O1041   1.263       .  A
N1037      O1042   1.261       .  A
N1040      O1043   1.261       .  A
N1040      O1044   1.262       .  A
C1045      C1046   1.405       .  A
C1045      C1050   1.412       .  A
C1045      H1052   1.083       .  S
C1046      C1047   1.420       .  A
C1047      C1048   1.412       .  A
C1047      N1054   1.434       .  S
C1048      C1049   1.404       .  A
C1048      H1053   1.083       .  S
C1049      C1050   1.419       .  A
C1050      N1051   1.438       .  S
N1051      O1055   1.263       .  A
N1051      O1056   1.262       .  A
N1054      O1057   1.262       .  A
N1054      O1058   1.262       .  A
C1059      C1060   1.413       .  A
C1059      C1064   1.407       .  A
C1059      H1066   1.083       .  S
C1061      C1062   1.423   1_545  A
C1061      N1068   1.434       .  S
C1062      C1063   1.415   1_565  A
C1062      H1067   1.083       .  S
C1064      N1065   1.434       .  S
N1065      O1069   1.263       .  A
N1068      O1072   1.263   1_545  A
C1073      C1074   1.407       .  A
C1073      C2290   1.406       .  A
C1073      H1080   1.080       .  S
C1074      C2287   1.419       .  A
C1075      C2286   1.419   1_455  A
C1075      C1076   1.409       .  A
C1075      N1082   1.426       .  S
C1076      C1077   1.401       .  A
C1076      H1081   1.083       .  S
C1077      C1078   1.416       .  A
C1078      C2285   1.406       .  A
C1078      N2291   1.441       .  S
N1079      C2290   1.441       .  S
N1079      O1083   1.262       .  A
N1079      O2296   1.263       .  A
N1082      O2297   1.262   1_455  A
N1082      O1086   1.260       .  A
O1084      N2291   1.263       .  A
O1085      N2294   1.262       .  A
C1087      C1088   1.398       .  A
C1087      C1092   1.396       .  A
C1087      H1094   1.084       .  S
C1088      C1089   1.427       .  A
C1089      C1090   1.422       .  A
C1089      N1096   1.448       .  S
C1090      C1091   1.407       .  A
C1090      H1095   1.083       .  S
C1091      C1092   1.420       .  A
C1092      N1093   1.438       .  S
N1093      O1097   1.263       .  A
N1093      O1098   1.263       .  A
N1096      O1099   1.261       .  A
N1096      O1100   1.263       .  A
C1101      C1102   1.392       .  A
C1101      C1106   1.377       .  A
C1101      H1108   1.084       .  S
C1102      C1103   1.411       .  A
C1103      C1104   1.395       .  A
C1103      N1110   1.441       .  S
C1104      C1105   1.392       .  A
C1104      H1109   1.084       .  S
C1105      C1106   1.406       .  A
C1106      N1107   1.431       .  S
N1107      O1111   1.262       .  A
N1107      O1112   1.262       .  A
N1110      O1113   1.262   1_556  A
N1110      O1114   1.261       .  A
C1115      C1116   1.400       .  A
C1115      C1120   1.398       .  A
C1115      H1122   1.084       .  S
C1116      C1117   1.423       .  A
C1117      C1118   1.394       .  A
C1117      N1124   1.451       .  S
C1118      C1119   1.393       .  A
C1118      H1123   1.084       .  S
C1119      C1120   1.413       .  A
C1120      N1121   1.444       .  S
N1121      O1125   1.263       .  A
N1121      O1126   1.262       .  A
N1124      O1127   1.261       .  A
N1124      O1128   1.263       .  A
C1129      C1130   1.391       .  A
C1129      C1134   1.405       .  A
C1129      H1136   1.084       .  S
C1130      C1131   1.423       .  A
C1131      C1132   1.413       .  A
C1131      N1138   1.425       .  S
C1132      C1133   1.396       .  A
C1132      H1137   1.084       .  S
C1133      C1134   1.416       .  A
C1134      N1135   1.418       .  S
N1135      O1139   1.260       .  A
N1135      O1140   1.259       .  A
N1138      O1141   1.261       .  A
N1138      O1142   1.262       .  A
C1143      C1144   1.396       .  A
C1143      C1148   1.402       .  A
C1143      H1150   1.085       .  S
C1144      C1145   1.420       .  A
C1145      C1146   1.417       .  A
C1145      N1152   1.443       .  S
C1146      C1147   1.409       .  A
C1146      H1151   1.083       .  S
C1147      C1148   1.426       .  A
C1148      N1149   1.436       .  S
N1149      O1153   1.262       .  A
N1149      O1154   1.257       .  A
N1152      O1155   1.262       .  A
C1157      C1158   1.411       .  A
C1157      C1162   1.403       .  A
C1157      H1164   1.081       .  S
C1158      C1159   1.416       .  A
C1159      C1160   1.411       .  A
C1159      N1166   1.439       .  S
C1160      C1161   1.402       .  A
C1160      H1165   1.079       .  S
C1161      C1162   1.408       .  A
C1162      N1163   1.446       .  S
N1163      O1167   1.263       .  A
N1163      O1168   1.262       .  A
N1166      O1169   1.262       .  A
N1166      O1170   1.262       .  A
C1171      C1172   1.413       .  A
C1171      H1178   1.084       .  S
C1172      C1173   1.415       .  A
C1173      N1180   1.435       .  S
C1174      C1175   1.411   1_554  A
C1174      H1179   1.084   1_554  S
C1175      C1176   1.413       .  A
C1176      N1177   1.436       .  S
N1177      O1181   1.262   1_565  A
N1177      O1182   1.262       .  A
N1180      O1183   1.262       .  A
N1180      O1184   1.262       .  A
C1185      C2398   1.405       .  A
C1185      C1190   1.411   1_654  A
C1185      H1192   1.083       .  S
C1186      C2397   1.405       .  A
C1186      C1187   1.423       .  A
C1187      C1188   1.411   1_554  A
C1187      N1194   1.432       .  S
C1188      C2401   1.405       .  A
C1188      H1193   1.083       .  S
C1189      C2400   1.405   1_455  A
C1189      C1190   1.424       .  A
C1190      N1191   1.433       .  S
N1191      O1195   1.262       .  A
N1191      O1196   1.262       .  A
N1194      O1197   1.262       .  A
N1194      O1198   1.262       .  A
C1199      C1200   1.402       .  A
C1199      C1204   1.410   1_554  A
C1199      H1206   1.083       .  S
C1200      C1201   1.420       .  A
C1201      C1202   1.414   1_554  A
C1201      N1208   1.442       .  S
C1202      C1203   1.403       .  A
C1202      H1207   1.083       .  S
C1203      C1204   1.417       .  A
C1204      N1205   1.437       .  S
N1205      O1209   1.262       .  A
N1205      O1210   1.261       .  A
N1208      O1211   1.263       .  A
N1208      O1212   1.262       .  A
N1213      N1214   1.316       .  A
N1213      N1219   1.316       .  A
N1213     Mn1242   2.181       .  S
N1214      C1221   1.348       .  A
N1215      N1217   1.326       .  A
N1215      N1216   1.325       .  A
N1215     Mn1231   2.206       .  S
N1216      C1222   1.348       .  A
N1217      N1218   1.326       .  A
N1217     Mn1242   2.210       .  S
N1218      C1222   1.348       .  A
N1219      N1220   1.308       .  A
N1219     Mn1231   2.142       .  S
N1220      C1221   1.340       .  A
C1221      C1708   1.435   1_554  S
C1222      C1792   1.507       .  S
N1223      N1229   1.314       .  A
N1223      N1224   1.314       .  A
N1223     Mn1253   2.201       .  S
N1224      C1232   1.348       .  A
N1225      N1226   1.320       .  A
N1225      N1227   1.314       .  A
N1225     Mn1231   2.212       .  S
N1226      C1233   1.348       .  A
N1227      N1228   1.328       .  A
N1227     Mn1253   2.214       .  S
N1228      C1233   1.361       .  A
N1229      N1230   1.326       .  A
N1229     Mn1231   2.199       .  S
N1230      C1232   1.361       .  A
Mn1231    Cl1255   2.540       .  S
C1232      C1764   1.493       .  S
C1233      C1806   1.488       .  S
N1234      N1235   1.332       .  A
N1234      N1240   1.317       .  A
N1234     Mn1242   2.235       .  S
N1235      C1243   1.364       .  A
N1236      N1238   1.313       .  A
N1236      N1237   1.331       .  A
N1236     Mn1254   2.233       .  S
N1237      C1244   1.365       .  A
N1238      N1239   1.315       .  A
N1238     Mn1242   2.189       .  S
N1239      C1244   1.345       .  A
N1240      N1241   1.319       .  A
N1240     Mn1254   2.222       .  S
N1241      C1243   1.350       .  A
Mn1242    Cl1255   2.537       .  S
C1243      C1739   1.501       .  S
C1244      C1778   1.498       .  S
N1245      N1246   1.325       .  A
N1245      N1251   1.326       .  A
N1245     Mn1253   2.216       .  S
N1246      C1256   1.349       .  A
N1247      N1248   1.315       .  A
N1247      N1249   1.316       .  A
N1247     Mn1254   2.191       .  S
N1248      C1257   1.351       .  A
N1249      N1250   1.317       .  A
N1249     Mn1253   2.176       .  S
N1250      C1257   1.344       .  A
N1251      N1252   1.324       .  A
N1251     Mn1254   2.210       .  S
N1252      C1256   1.348       .  A
Mn1253    Cl1255   2.537       .  S
Mn1254    Cl1255   2.539       .  S
C1256      C1753   1.501       .  S
C1257      C1722   1.450       .  S
N1258      N1259   1.336       .  A
N1258      N1264   1.314       .  A
N1258     Mn1287   2.255       .  S
N1259      C1266   1.369       .  A
N1260      N1262   1.314       .  A
N1260      N1261   1.333       .  A
N1260     Mn1276   2.246       .  S
N1261      C1267   1.368       .  A
N1262      N1263   1.321       .  A
N1262     Mn1287   2.214       .  S
N1263      C1267   1.350       .  A
N1264      N1265   1.317       .  A
N1264     Mn1276   2.197       .  S
N1265      C1266   1.347       .  A
C1266      C1666   1.517       .  S
C1267      C1624   1.517       .  S
N1268      N1274   1.327       .  A
N1268      N1269   1.324       .  A
N1268     Mn1298   2.209       .  S
N1269      C1277   1.350       .  A
N1270      N1271   1.321       .  A
N1270      N1272   1.315       .  A
N1270     Mn1276   2.203       .  S
N1271      C1278   1.353       .  A
N1272      N1273   1.308       .  A
N1272     Mn1298   2.144       .  S
N1273      C1278   1.337       .  A
N1274      N1275   1.324       .  A
N1274     Mn1276   2.204       .  S
N1275      C1277   1.347       .  A
Mn1276    Cl1300   2.540       .  S
C1277      C1680   1.505       .  S
C1278      C1725   1.443       .  S
N1279      N1280   1.316       .  A
N1279      N1285   1.316       .  A
N1279     Mn1287   2.194       .  S
N1280      C1288   1.351       .  A
N1281      N1283   1.328       .  A
N1281      N1282   1.327       .  A
N1281     Mn1299   2.222       .  S
N1282      C1289   1.351       .  A
N1283      N1284   1.326       .  A
N1283     Mn1287   2.201       .  S
N1284      C1289   1.345       .  A
N1285      N1286   1.306       .  A
N1285     Mn1299   2.131       .  S
N1286      C1288   1.339       .  A
Mn1287    Cl1300   2.533       .  S
C1288      C1711   1.433       .  S
C1289      C1638   1.513       .  S
N1290      N1291   1.318       .  A
N1290      N1296   1.315       .  A
N1290     Mn1298   2.216       .  S
N1291      C1301   1.348       .  A
N1292      N1293   1.322       .  A
N1292      N1294   1.314       .  A
N1292     Mn1299   2.230       .  S
N1293      C1302   1.353       .  A
N1294      N1295   1.327       .  A
N1294     Mn1298   2.209       .  S
N1295      C1302   1.360       .  A
N1296      N1297   1.329       .  A
N1296     Mn1299   2.207       .  S
N1297      C1301   1.360       .  A
Mn1298    Cl1300   2.536       .  S
Mn1299    Cl1300   2.542       .  S
C1301      C1694   1.486       .  S
C1302      C1652   1.500       .  S
N1303      N1304   1.315       .  A
N1303      N1309   1.315       .  A
N1303     Mn1332   2.161       .  S
N1304      C1311   1.349       .  A
N1305      N1307   1.326       .  A
N1305      N1306   1.324       .  A
N1305     Mn1321   2.206       .  S
N1306      C1312   1.349       .  A
N1307      N1308   1.330       .  A
N1307     Mn1332   2.210       .  S
N1308      C1312   1.350       .  A
N1309      N1310   1.305       .  A
N1309     Mn1321   2.144       .  S
N1310      C1311   1.340       .  A
C1311      C1554   1.439       .  S
C1312      C1669   1.511       .  S
N1313      N1319   1.315       .  A
N1313      N1314   1.317       .  A
N1313     Mn1343   2.204       .  S
N1314      C1322   1.345       .  A
N1315      N1316   1.312       .  A
N1315      N1317   1.313       .  A
N1315     Mn1321   2.196       .  S
N1316      C1323   1.343       .  A
N1317      N1318   1.332       .  A
N1317     Mn1343   2.221       .  S
N1318      C1323   1.366       .  A
N1319      N1320   1.328       .  A
N1319     Mn1321   2.211       .  S
N1320      C1322   1.361       .  A
Mn1321    Cl1345   2.511       .  S
C1322      C1613   1.478       .  S
C1323      C1697   1.496       .  S
N1324      N1325   1.333       .  A
N1324      N1330   1.315       .  A
N1324     Mn1332   2.228       .  S
N1325      C1333   1.367       .  A
N1326      N1328   1.314       .  A
N1326      N1327   1.331       .  A
N1326     Mn1344   2.223       .  S
N1327      C1334   1.364       .  A
N1328      N1329   1.314       .  A
N1328     Mn1332   2.188       .  S
N1329      C1334   1.344       .  A
N1330      N1331   1.310       .  A
N1330     Mn1344   2.190       .  S
N1331      C1333   1.342       .  A
Mn1332    Cl1345   2.557       .  S
C1333      C1582   1.492       .  S
C1334      C1683   1.486       .  S
N1335      N1336   1.328       .  A
N1335      N1341   1.327       .  A
N1335     Mn1343   2.215       .  S
N1336      C1346   1.348       .  A
N1337      N1338   1.312       .  A
N1337      N1339   1.315       .  A
N1337     Mn1344   2.167       .  S
N1338      C1347   1.344       .  A
N1339      N1340   1.310       .  A
N1339     Mn1343   2.138       .  S
N1340      C1347   1.341       .  A
N1341      N1342   1.324       .  A
N1341     Mn1344   2.206       .  S
N1342      C1346   1.348       .  A
Mn1343    Cl1345   2.557       .  S
Mn1344    Cl1345   2.510       .  S
C1346      C1599   1.505       .  S
C1347      C1571   1.427       .  S
N1348      N1349   1.328       .  A
N1348      N1354   1.314       .  A
N1348     Mn1377   2.205       .  S
N1349      C1356   1.360       .  A
N1350      N1352   1.314       .  A
N1350      N1351   1.330       .  A
N1350     Mn1366   2.211       .  S
N1351      C1357   1.362       .  A
N1352      N1353   1.316       .  A
N1352     Mn1377   2.215       .  S
N1353      C1357   1.350       .  A
N1354      N1355   1.321       .  A
N1354     Mn1366   2.227       .  S
N1355      C1356   1.351       .  A
C1356      C1809   1.491       .  S
C1357      C1529   1.504       .  S
N1358      N1364   1.326       .  A
N1358      N1359   1.325       .  A
N1358     Mn1388   2.206       .  S
N1359      C1367   1.347       .  A
N1360      N1361   1.305       .  A
N1360      N1362   1.317       .  A
N1360     Mn1366   2.142       .  S
N1361      C1368   1.340   1_556  A
N1362      N1363   1.320       .  A
N1362     Mn1388   2.198       .  S
N1363      C1368   1.352   1_556  A
N1364      N1365   1.326       .  A
N1364     Mn1366   2.207       .  S
N1365      C1367   1.349       .  A
Mn1366    Cl1390   2.542       .  S
C1367      C1795   1.507       .  S
C1368      C1568   1.456       .  S
N1369      N1370   1.306       .  A
N1369      N1375   1.313       .  A
N1369     Mn1377   2.131       .  S
N1370      C1378   1.337       .  A
N1371      N1373   1.326       .  A
N1371      N1372   1.327       .  A
N1371     Mn1389   2.206       .  S
N1372      C1379   1.348       .  A
N1373      N1374   1.325       .  A
N1373     Mn1377   2.223       .  S
N1374      C1379   1.353       .  A
N1375      N1376   1.314       .  A
N1375     Mn1389   2.166       .  S
N1376      C1378   1.348       .  A
Mn1377    Cl1390   2.528       .  S
C1378      C1557   1.416       .  S
C1379      C1540   1.512       .  S
N1380      N1381   1.315       .  A
N1380      N1386   1.314       .  A
N1380     Mn1388   2.195       .  S
N1381      C1391   1.346       .  A
N1382      N1383   1.316       .  A
N1382      N1384   1.316       .  A
N1382     Mn1389   2.191       .  S
N1383      C1392   1.343       .  A
N1384      N1385   1.333       .  A
N1384     Mn1388   2.248       .  S
N1385      C1392   1.367       .  A
N1386      N1387   1.330       .  A
N1386     Mn1389   2.222       .  S
N1387      C1391   1.365       .  A
Mn1388    Cl1390   2.529       .  S
Mn1389    Cl1390   2.541       .  S
C1391      C1781   1.495       .  S
C1392      C1512   1.492       .  S
N1393      N1394   1.328       .  A
N1393      N1399   1.314       .  A
N1393     Mn1422   2.208   1_556  S
N1394      C1401   1.361       .  A
N1395      N1397   1.315       .  A
N1395      N1396   1.330       .  A
N1395     Mn1411   2.214   1_554  S
N1396      C1402   1.362       .  A
N1397      N1398   1.316       .  A
N1398      C1402   1.346       .  A
N1399      N1400   1.322       .  A
N1400      C1401   1.352       .  A
C1401      C1655   1.498       .  S
C1402      C1585   1.486       .  S
N1403      N1409   1.328       .  A
N1403      N1404   1.327       .  A
N1403     Mn1433   2.215       .  S
N1404      C1412   1.347       .  A
N1405      N2013   1.315       .  A
N1405     Mn1411   2.131       .  S
N1406      C1413   1.338       .  A
N1407      N2011   1.315       .  A
N1407      N1408   1.317       .  A
N1407     Mn1433   2.178       .  S
N1409      N1410   1.327       .  A
N1409     Mn2017   2.211   1_545  S
N1410      C1412   1.349       .  A
Mn1411     N2015   2.211       .  S
Mn1411    Cl2041   2.536   1_556  S
C1412      C1641   1.514       .  S
C1413      C1487   1.436       .  S
N1414      N1415   1.312       .  A
N1414      N2026   1.317       .  A
N1415      C2029   1.341       .  A
N1416      N1418   1.324       .  A
N1416      N1417   1.324       .  A
N1416     Mn2040   2.207       .  S
N1417      C1424   1.348       .  A
N1418      N1419   1.321       .  A
N1418     Mn1422   2.204       .  S
N1419      C1424   1.349       .  A
N1420      N2020   1.317   1_545  A
N1420      N1421   1.320       .  A
N1421      C1423   1.351   1_545  A
C1423      N2021   1.341       .  A
C1423      C1501   1.450       .  S
C1424      C1610   1.490       .  S
N1425      N1426   1.319   1_455  A
N1425      N1431   1.313   1_455  A
N1426      C1436   1.349       .  A
N1427      N1428   1.314       .  A
N1427      N1429   1.314       .  A
N1428      C1437   1.346       .  A
N1429      N1430   1.335       .  A
N1429     Mn1433   2.252   1_554  S
N1430      C1437   1.370       .  A
N1431      N1432   1.333       .  A
N1431     Mn1434   2.235   1_556  S
N1432      C1436   1.368       .  A
Mn1433    Cl1435   2.528   1_556  S
Mn1434     N2022   2.207   1_545  S
Cl1435    Mn2017   2.536   1_544  S
C1436      C1627   1.516       .  S
C1437      C1596   1.514       .  S
N1438      N1439   1.319       .  A
N1438     Mn1467   2.164       .  S
N1439      C2052   1.345       .  A
N1440      N1442   1.327       .  A
N1440      N1441   1.324       .  A
N1440     Mn2062   2.208   1_545  S
N1441      C1447   1.345       .  A
N1442      N1443   1.328       .  A
N1443      C1447   1.349       .  A
N1444      N1445   1.310       .  A
N1444     Mn1456   2.189       .  S
C1446      N2045   1.345       .  A
C1446      C1498   1.459       .  S
C1447      C1736   1.496       .  S
N1448      N1454   1.315       .  A
N1448      N1449   1.312       .  A
N1448     Mn1478   2.185       .  S
N1449      C1457   1.342       .  A
N1450      N1451   1.317       .  A
N1450      N1452   1.314       .  A
N1450     Mn1456   2.221       .  S
N1451      C1458   1.349       .  A
N1452      N1453   1.327       .  A
N1452     Mn1478   2.185       .  S
N1453      C1458   1.357       .  A
N1454      N1455   1.336       .  A
N1454     Mn1456   2.252       .  S
N1455      C1457   1.370       .  A
Mn1456     N2046   2.208       .  S
C1457      C1543   1.503       .  S
C1458      C1767   1.476       .  S
N1459      N1460   1.333       .  A
N1459      N1465   1.315       .  A
N1459     Mn1467   2.237       .  S
N1460      C1468   1.367       .  A
N1461      N1463   1.314       .  A
N1461      N1462   1.331       .  A
N1461     Mn1479   2.226       .  S
N1462      C1469   1.364       .  A
N1463      N1464   1.313       .  A
N1463     Mn1467   2.178       .  S
N1464      C1469   1.339       .  A
N1465      N1466   1.313       .  A
N1465     Mn1479   2.188       .  S
N1466      C1468   1.342       .  A
Mn1467    Cl1480   2.562       .  S
C1468      C1526   1.487       .  S
C1469      C1750   1.480       .  S
N1470      N1471   1.328       .  A
N1470      N1476   1.325       .  A
N1471      C1481   1.350       .  A
N1472      N1473   1.311   1_565  A
N1472     Mn1479   2.174   1_565  S
N1473      C1482   1.350   1_545  A
N1474      N1475   1.311       .  A
N1474     Mn1478   2.126       .  S
N1476      N1477   1.323       .  A
N1476     Mn2085   2.208       .  S
N1477      C1481   1.349       .  A
Mn1479     N2082   2.208   1_545  S
Mn1479    Cl1480   2.503       .  S
C1481      C1515   1.510       .  S
C1482      C1484   1.420       .  S
C1483      C1484   1.391       .  A
C1483      C2094   1.375       .  A
C1483      H1490   1.085       .  S
C1485      C1486   1.397       .  A
C1485      N1492   1.445       .  S
C1486      C2093   1.401   1_655  A
C1486      H1491   1.082       .  S
C1487      C2092   1.401   1_455  A
C1488      C2089   1.375       .  A
C1488      N1489   1.437       .  S
N1489      O1493   1.262       .  A
N1489      O1494   1.263       .  A
N1492      O1495   1.263       .  A
N1492      O1496   1.262       .  A
C1497      C2104   1.400       .  A
C1497      C1502   1.403       .  A
C1497      H1504   1.083       .  S
C1498      C2103   1.400       .  A
C1499      N1506   1.425       .  S
C1500      C2107   1.392       .  A
C1501      C2106   1.392       .  A
C1501      C1502   1.413   1_565  A
C1502      N1503   1.442       .  S
N1503      O1507   1.262       .  A
N1503      O1508   1.262       .  A
N1506      O1509   1.262       .  A
N1506      O1510   1.262       .  A
C1511      C1512   1.404       .  A
C1511      C1516   1.415       .  A
C1511      H1518   1.083       .  S
C1512      C1513   1.419       .  A
C1513      C1514   1.410       .  A
C1513      N1520   1.444       .  S
C1514      C1515   1.409       .  A
C1514      H1519   1.081       .  S
C1515      C1516   1.418       .  A
C1516      N1517   1.428       .  S
N1517      O1521   1.261       .  A
N1517      O1522   1.262       .  A
N1520      O1523   1.261       .  A
N1520      O1524   1.263       .  A
C1525      C1526   1.406       .  A
C1525      C1530   1.417       .  A
C1525      H1532   1.084       .  S
C1526      C1527   1.413       .  A
C1527      C1528   1.402       .  A
C1527      N1534   1.442       .  S
C1528      C1529   1.408       .  A
C1528      H1533   1.083       .  S
C1529      C1530   1.424       .  A
C1530      N1531   1.436       .  S
N1531      O1535   1.263       .  A
N1531      O1536   1.260       .  A
N1534      O1537   1.263       .  A
N1534      O1538   1.263       .  A
C1539      C1540   1.404       .  A
C1539      C1544   1.404       .  A
C1539      H1546   1.082       .  S
C1540      C1541   1.428       .  A
C1541      C1542   1.420       .  A
C1541      N1548   1.434       .  S
C1542      C1543   1.405       .  A
C1542      H1547   1.083       .  S
C1543      C1544   1.421       .  A
C1544      N1545   1.438       .  S
N1545      O1549   1.263       .  A
N1545      O1550   1.262       .  A
N1548      O1551   1.262       .  A
N1548      O1552   1.263       .  A
C1553      C1554   1.399       .  A
C1553      C1558   1.377       .  A
C1553      H1560   1.084       .  S
C1554      C1555   1.408       .  A
C1555      C1556   1.392       .  A
C1555      N1562   1.439       .  S
C1556      C1557   1.396       .  A
C1556      H1561   1.084       .  S
C1557      C1558   1.404       .  A
C1558      N1559   1.441       .  S
N1559      O1563   1.263       .  A
N1559      O1564   1.262       .  A
N1562      O1565   1.263       .  A
N1562      O1566   1.262       .  A
C1567      C1568   1.404       .  A
C1567      C1572   1.384       .  A
C1567      H1574   1.084       .  S
C1568      C1569   1.405       .  A
C1569      C1570   1.390       .  A
C1569      N1576   1.430       .  S
C1570      C1571   1.395       .  A
C1570      H1575   1.083       .  S
C1571      C1572   1.402       .  A
C1572      N1573   1.438       .  S
N1573      O1577   1.262       .  A
N1573      O1578   1.259       .  A
N1576      O1579   1.263       .  A
N1576      O1580   1.259       .  A
C1581      C1582   1.406       .  A
C1581      C1586   1.420       .  A
C1581      H1588   1.083       .  S
C1582      C1583   1.421       .  A
C1583      C1584   1.397       .  A
C1583      N1590   1.442       .  S
C1584      C1585   1.398       .  A
C1584      H1589   1.085       .  S
C1585      C1586   1.425       .  A
C1586      N1587   1.444       .  S
N1587      O2197   1.263       .  A
N1587      O1592   1.262       .  A
N1590      O1593   1.263       .  A
N1590      O1594   1.263       .  A
O1591      N2193   1.263   1_545  A
C1595      C1596   1.415       .  A
C1595      C1600   1.408       .  A
C1595      H1602   1.082       .  S
C1596      C1597   1.419       .  A
C1597      C1598   1.421       .  A
C1597      N1604   1.436       .  S
C1598      C1599   1.415       .  A
C1598      H1603   1.083       .  S
C1599      C1600   1.412       .  A
C1600      N1601   1.440       .  S
N1601      O1605   1.263       .  A
N1601      O1606   1.263       .  A
N1604      O1607   1.262       .  A
N1604      O1608   1.263       .  A
C1609      C1610   1.409       .  A
C1609      C1614   1.405       .  A
C1609      H1616   1.083       .  S
C1610      C1611   1.417       .  A
C1611      C1612   1.414       .  A
C1611      N1618   1.442       .  S
C1612      C1613   1.406       .  A
C1612      H1617   1.083       .  S
C1613      C1614   1.412       .  A
C1614      N1615   1.444       .  S
N1615      O1619   1.263       .  A
N1615      O1620   1.263       .  A
N1618      O1621   1.263       .  A
N1618      O1622   1.263       .  A
C1623      C1624   1.405       .  A
C1623      C1628   1.415       .  A
C1623      H1630   1.083       .  S
C1624      C1625   1.425       .  A
C1625      C1626   1.414       .  A
C1625      N1632   1.431       .  S
C1626      C1627   1.405       .  A
C1626      H1631   1.083       .  S
C1627      C1628   1.427       .  A
C1628      N1629   1.434   1_655  S
N1629      O1633   1.263       .  A
N1629      O1634   1.263       .  A
N1632      O1635   1.262       .  A
N1632      O1636   1.262       .  A
C1637      C1638   1.404       .  A
C1637      C1642   1.413       .  A
C1637      H1644   1.083       .  S
C1638      C1639   1.426       .  A
C1639      C1640   1.414       .  A
C1639      N1646   1.434       .  S
C1640      C1641   1.407       .  A
C1640      H1645   1.084       .  S
C1641      C1642   1.428       .  A
C1642      N1643   1.436       .  S
N1643      O1647   1.263       .  A
N1643      O1648   1.261       .  A
N1646      O1649   1.261       .  A
N1646      O1650   1.262       .  A
C1651      C1652   1.405       .  A
C1651      C1656   1.412       .  A
C1651      H1658   1.083       .  S
C1652      C1653   1.420       .  A
C1653      C1654   1.412       .  A
C1653      N1660   1.434       .  S
C1654      C1655   1.404       .  A
C1654      H1659   1.083       .  S
C1655      C1656   1.419       .  A
C1656      N1657   1.438       .  S
N1657      O1661   1.263   1_655  A
N1657      O1662   1.262       .  A
N1660      O1663   1.262       .  A
N1660      O1664   1.262       .  A
C1665      C1666   1.413       .  A
C1665      C1670   1.407       .  A
C1665      H1672   1.083       .  S
C1666      C2273   1.420       .  A
C1667      C2272   1.420       .  A
C1667      C1668   1.423       .  A
C1667      N1674   1.434       .  S
C1668      C1669   1.415       .  A
C1668      H1673   1.083       .  S
C1669      C2276   1.411       .  A
C1670      C2275   1.411       .  A
C1670      N1671   1.434       .  S
N1671      O1675   1.263       .  A
N1671      O2282   1.261       .  A
N1674      O2283   1.262       .  A
N1674      O1678   1.263       .  A
O1676      N2277   1.261       .  A
O1677      N2280   1.262       .  A
C1679      C1680   1.407   1_455  A
C1679      H1686   1.080   1_455  S
C1681      C1682   1.409       .  A
C1681      N1688   1.426       .  S
C1682      C1683   1.401       .  A
C1682      H1687   1.083       .  S
C1683      C1684   1.416       .  A
N1685      O1689   1.262       .  A
N1688      O1692   1.260       .  A
C1693      C1694   1.398       .  A
C1693      C1698   1.396       .  A
C1693      H1700   1.084       .  S
C1694      C1695   1.427       .  A
C1695      C1696   1.422       .  A
C1695      N1702   1.448       .  S
C1696      C1697   1.407       .  A
C1696      H1701   1.083       .  S
C1697      C1698   1.420       .  A
C1698      N1699   1.438       .  S
N1699      O1703   1.263       .  A
N1699      O1704   1.263       .  A
N1702      O1705   1.261       .  A
N1702      O1706   1.263       .  A
C1707      C1708   1.392       .  A
C1707      C1712   1.377       .  A
C1707      H1714   1.084       .  S
C1708      C1709   1.411       .  A
C1709      C1710   1.395       .  A
C1709      N1716   1.441       .  S
C1710      C1711   1.392       .  A
C1710      H1715   1.084       .  S
C1711      C1712   1.406       .  A
C1712      N1713   1.431       .  S
N1713      O1717   1.262       .  A
N1713      O1718   1.262       .  A
N1716      O1719   1.262   1_556  A
N1716      O1720   1.261       .  A
C1721      C1722   1.400       .  A
C1721      C1726   1.398       .  A
C1721      H1728   1.084       .  S
C1722      C1723   1.423       .  A
C1723      C1724   1.394       .  A
C1723      N1730   1.451       .  S
C1724      C1725   1.393       .  A
C1724      H1729   1.084       .  S
C1725      C1726   1.413       .  A
C1726      N1727   1.444       .  S
N1727      O1731   1.263       .  A
N1727      O1732   1.262       .  A
N1730      O1733   1.261       .  A
N1730      O1734   1.263       .  A
C1735      C1736   1.391       .  A
C1735      C1740   1.405       .  A
C1735      H1742   1.084       .  S
C1736      C1737   1.423       .  A
C1737      C1738   1.413       .  A
C1737      N1744   1.425       .  S
C1738      C1739   1.396       .  A
C1738      H1743   1.084       .  S
C1739      C1740   1.416       .  A
C1740      N1741   1.418       .  S
N1741      O1745   1.260       .  A
N1741      O1746   1.259       .  A
N1744      O1747   1.261       .  A
N1744      O1748   1.262       .  A
C1749      C1750   1.396       .  A
C1749      C1754   1.402       .  A
C1749      H1756   1.085       .  S
C1750      C1751   1.420       .  A
C1751      C1752   1.417       .  A
C1751      N1758   1.444       .  S
C1752      C1753   1.409       .  A
C1752      H1757   1.083       .  S
C1753      C1754   1.426       .  A
C1754      N1755   1.436       .  S
N1755      O1759   1.261       .  A
N1755      O1760   1.257       .  A
N1758      O1761   1.262   1_545  A
N1758      O2368   1.263   1_545  A
O1762      N2364   1.263       .  A
C1763      C1764   1.411       .  A
C1763      C1768   1.403       .  A
C1763      H1770   1.081       .  S
C1764      C1765   1.416       .  A
C1765      C1766   1.411       .  A
C1765      N1772   1.439       .  S
C1766      C1767   1.402       .  A
C1766      H1771   1.079       .  S
C1767      C1768   1.408       .  A
C1768      N1769   1.446       .  S
N1769      O1773   1.263       .  A
N1769      O1774   1.262       .  A
N1772      O1775   1.262       .  A
N1772      O1776   1.262       .  A
C1777      C1778   1.413       .  A
C1777      C2388   1.409   1_544  A
C1777      H1784   1.084       .  S
C1778      C1779   1.415       .  A
C1779      C2386   1.410   1_545  A
C1779      N1786   1.435       .  S
C1780      C2385   1.410       .  A
C1780      C1781   1.411   1_554  A
C1780      H1785   1.084   1_554  S
C1781      C1782   1.413       .  A
C1782      C2383   1.409   1_556  A
C1782      N1783   1.436       .  S
N1783      O1787   1.262       .  A
N1783      O1788   1.262       .  A
N1786      O1789   1.262       .  A
N1786      O1790   1.262   1_545  A
C1791      C1796   1.411   1_554  A
C1791      H1798   1.083       .  S
C1792      C1793   1.423       .  A
C1793      C1794   1.411   1_554  A
C1793      N1800   1.432       .  S
C1794      H1799   1.083       .  S
C1795      C1796   1.424       .  A
C1796      N1797   1.433       .  S
N1797      O1801   1.262       .  A
N1797      O1802   1.262       .  A
N1800      O1803   1.262       .  A
N1800      O1804   1.262       .  A
C1805      C1806   1.402       .  A
C1805      C1810   1.410   1_554  A
C1805      H1812   1.083       .  S
C1806      C1807   1.420       .  A
C1807      C1808   1.414   1_554  A
C1807      N1814   1.442       .  S
C1808      C1809   1.403       .  A
C1808      H1813   1.083       .  S
C1809      C1810   1.417       .  A
C1810      N1811   1.437       .  S
N1811      O1815   1.262       .  A
N1811      O1816   1.261       .  A
N1814      O1817   1.263       .  A
N1814      O1818   1.262       .  A
N1819      N1820   1.316       .  A
N1819      N1825   1.316       .  A
N1819     Mn1848   2.181       .  S
N1820      C1827   1.348       .  A
N1821      N1823   1.326       .  A
N1821      N1822   1.325       .  A
N1821     Mn1837   2.206       .  S
N1822      C1828   1.348       .  A
N1823      N1824   1.326       .  A
N1823     Mn1848   2.210       .  S
N1824      C1828   1.348       .  A
N1825      N1826   1.308       .  A
N1825     Mn1837   2.142       .  S
N1826      C1827   1.340       .  A
C1827      C2314   1.435   1_554  S
C1828      C2398   1.507       .  S
N1829      N1835   1.314       .  A
N1829      N1830   1.314       .  A
N1829     Mn1859   2.201       .  S
N1830      C1838   1.348       .  A
N1831      N1832   1.320       .  A
N1831      N1833   1.314       .  A
N1831     Mn1837   2.212       .  S
N1832      C1839   1.348       .  A
N1833      N1834   1.328       .  A
N1833     Mn1859   2.214       .  S
N1834      C1839   1.361       .  A
N1835      N1836   1.326       .  A
N1835     Mn1837   2.199       .  S
N1836      C1838   1.361       .  A
Mn1837    Cl1861   2.540       .  S
C1838      C2370   1.493       .  S
C1839      C2412   1.488       .  S
N1840      N1841   1.332       .  A
N1840      N1846   1.317       .  A
N1840     Mn1848   2.235       .  S
N1841      C1849   1.364       .  A
N1842      N1844   1.313       .  A
N1842      N1843   1.331       .  A
N1842     Mn1860   2.233       .  S
N1843      C1850   1.365       .  A
N1844      N1845   1.315       .  A
N1844     Mn1848   2.189       .  S
N1845      C1850   1.345       .  A
N1846      N1847   1.319       .  A
N1846     Mn1860   2.222       .  S
N1847      C1849   1.350       .  A
Mn1848    Cl1861   2.537       .  S
C1849      C2345   1.501       .  S
C1850      C2384   1.498       .  S
N1851      N1852   1.325       .  A
N1851      N1857   1.326       .  A
N1851     Mn1859   2.216       .  S
N1852      C1862   1.349       .  A
N1853      N1854   1.315       .  A
N1853      N1855   1.316       .  A
N1853     Mn1860   2.191       .  S
N1854      C1863   1.351       .  A
N1855      N1856   1.317       .  A
N1855     Mn1859   2.176       .  S
N1856      C1863   1.344       .  A
N1857      N1858   1.324       .  A
N1857     Mn1860   2.210       .  S
N1858      C1862   1.348       .  A
Mn1859    Cl1861   2.537       .  S
Mn1860    Cl1861   2.539       .  S
C1862      C2359   1.501       .  S
C1863      C2328   1.450       .  S
N1864      N1865   1.336       .  A
N1864      N1870   1.314       .  A
N1864     Mn1893   2.255       .  S
N1865      C1872   1.369       .  A
N1866      N1868   1.314       .  A
N1866      N1867   1.333       .  A
N1866     Mn1882   2.246       .  S
N1867      C1873   1.368       .  A
N1868      N1869   1.321       .  A
N1868     Mn1893   2.214       .  S
N1869      C1873   1.350       .  A
N1870      N1871   1.317       .  A
N1870     Mn1882   2.197       .  S
N1871      C1872   1.347       .  A
C1872      C2272   1.517       .  S
C1873      C2230   1.517       .  S
N1874      N1880   1.327       .  A
N1874      N1875   1.324       .  A
N1874     Mn1904   2.209       .  S
N1875      C1883   1.350       .  A
N1876      N1877   1.321       .  A
N1876      N1878   1.315       .  A
N1876     Mn1882   2.203       .  S
N1877      C1884   1.353       .  A
N1878      N1879   1.308       .  A
N1878     Mn1904   2.144       .  S
N1879      C1884   1.337       .  A
N1880      N1881   1.324       .  A
N1880     Mn1882   2.204       .  S
N1881      C1883   1.347       .  A
Mn1882    Cl1906   2.539       .  S
C1883      C2286   1.505       .  S
C1884      C2331   1.442       .  S
N1885      N1886   1.316       .  A
N1885      N1891   1.316       .  A
N1885     Mn1893   2.194       .  S
N1886      C1894   1.351       .  A
N1887      N1889   1.328       .  A
N1887      N1888   1.327       .  A
N1887     Mn1905   2.222       .  S
N1888      C1895   1.351       .  A
N1889      N1890   1.326       .  A
N1889     Mn1893   2.201       .  S
N1890      C1895   1.345       .  A
N1891      N1892   1.306       .  A
N1891     Mn1905   2.131       .  S
N1892      C1894   1.339       .  A
Mn1893    Cl1906   2.533       .  S
C1894      C2317   1.433       .  S
C1895      C2244   1.513       .  S
N1896      N1897   1.318       .  A
N1896      N1902   1.315       .  A
N1896     Mn1904   2.216       .  S
N1897      C1907   1.348       .  A
N1898      N1899   1.322       .  A
N1898      N1900   1.314       .  A
N1898     Mn1905   2.230       .  S
N1899      C1908   1.353       .  A
N1900      N1901   1.327       .  A
N1900     Mn1904   2.209       .  S
N1901      C1908   1.360       .  A
N1902      N1903   1.329       .  A
N1902     Mn1905   2.207       .  S
N1903      C1907   1.360       .  A
Mn1904    Cl1906   2.537       .  S
Mn1905    Cl1906   2.542       .  S
C1907      C2300   1.486       .  S
C1908      C2258   1.500       .  S
N1909      N1910   1.315       .  A
N1909      N1915   1.315       .  A
N1909     Mn1938   2.161       .  S
N1910      C1917   1.349       .  A
N1911      N1913   1.326       .  A
N1911      N1912   1.324       .  A
N1911     Mn1927   2.206       .  S
N1912      C1918   1.349       .  A
N1913      N1914   1.330       .  A
N1913     Mn1938   2.210       .  S
N1914      C1918   1.350       .  A
N1915      N1916   1.305       .  A
N1915     Mn1927   2.144       .  S
N1916      C1917   1.340       .  A
C1917      C2160   1.439       .  S
C1918      C2275   1.511   1_565  S
N1919      N1925   1.315       .  A
N1919      N1920   1.317       .  A
N1919     Mn1949   2.204       .  S
N1920      C1928   1.345       .  A
N1921      N1922   1.312       .  A
N1921      N1923   1.313       .  A
N1921     Mn1927   2.196       .  S
N1922      C1929   1.343       .  A
N1923      N1924   1.332       .  A
N1923     Mn1949   2.221       .  S
N1924      C1929   1.366       .  A
N1925      N1926   1.328       .  A
N1925     Mn1927   2.211       .  S
N1926      C1928   1.361       .  A
Mn1927    Cl1951   2.511       .  S
C1928      C2219   1.478       .  S
C1929      C2303   1.496       .  S
N1930      N1931   1.333       .  A
N1930      N1936   1.315       .  A
N1930     Mn1938   2.228       .  S
N1931      C1939   1.367       .  A
N1932      N1934   1.314       .  A
N1932      N1933   1.331       .  A
N1932     Mn1950   2.223       .  S
N1933      C1940   1.364       .  A
N1934      N1935   1.314       .  A
N1934     Mn1938   2.188       .  S
N1935      C1940   1.344       .  A
N1936      N1937   1.310       .  A
N1936     Mn1950   2.190       .  S
N1937      C1939   1.342       .  A
Mn1938    Cl1951   2.557       .  S
C1939      C2188   1.492       .  S
C1940      C2289   1.486       .  S
N1941      N1942   1.328       .  A
N1941      N1947   1.327       .  A
N1941     Mn1949   2.215       .  S
N1942      C1952   1.348       .  A
N1943      N1944   1.312       .  A
N1943      N1945   1.315       .  A
N1943     Mn1950   2.167       .  S
N1944      C1953   1.344       .  A
N1945      N1946   1.310       .  A
N1945     Mn1949   2.138       .  S
N1946      C1953   1.341       .  A
N1947      N1948   1.324       .  A
N1947     Mn1950   2.206       .  S
N1948      C1952   1.348       .  A
Mn1949    Cl1951   2.557       .  S
Mn1950    Cl1951   2.510       .  S
C1952      C2205   1.505       .  S
C1953      C2177   1.427       .  S
N1954      N1955   1.328       .  A
N1954      N1960   1.314       .  A
N1954     Mn1983   2.205       .  S
N1955      C1962   1.360       .  A
N1956      N1958   1.314       .  A
N1956      N1957   1.330       .  A
N1956     Mn1972   2.211       .  S
N1957      C1963   1.362       .  A
N1958      N1959   1.316       .  A
N1958     Mn1983   2.215       .  S
N1959      C1963   1.350       .  A
N1960      N1961   1.321       .  A
N1960     Mn1972   2.227       .  S
N1961      C1962   1.351       .  A
C1962      C2415   1.491       .  S
C1963      C2135   1.504       .  S
N1964      N1970   1.326       .  A
N1964      N1965   1.325       .  A
N1964     Mn1994   2.206       .  S
N1965      C1973   1.347       .  A
N1966      N1967   1.305       .  A
N1966      N1968   1.317       .  A
N1966     Mn1972   2.142       .  S
N1967      C1974   1.340   1_556  A
N1968      N1969   1.320       .  A
N1968     Mn1994   2.198       .  S
N1969      C1974   1.352   1_556  A
N1970      N1971   1.326       .  A
N1970     Mn1972   2.207       .  S
N1971      C1973   1.349       .  A
Mn1972    Cl1996   2.542       .  S
C1973      C2401   1.507       .  S
C1974      C2174   1.456       .  S
N1975      N1976   1.306       .  A
N1975      N1981   1.313       .  A
N1975     Mn1983   2.131       .  S
N1976      C1984   1.337       .  A
N1977      N1979   1.326       .  A
N1977      N1978   1.327       .  A
N1977     Mn1995   2.206       .  S
N1978      C1985   1.348       .  A
N1979      N1980   1.325       .  A
N1979     Mn1983   2.223       .  S
N1980      C1985   1.353       .  A
N1981      N1982   1.314       .  A
N1981     Mn1995   2.166       .  S
N1982      C1984   1.348       .  A
Mn1983    Cl1996   2.528       .  S
C1984      C2163   1.416       .  S
C1985      C2146   1.512       .  S
N1986      N1987   1.315       .  A
N1986      N1992   1.314       .  A
N1986     Mn1994   2.195       .  S
N1987      C1997   1.346       .  A
N1988      N1989   1.316       .  A
N1988      N1990   1.316       .  A
N1988     Mn1995   2.191       .  S
N1989      C1998   1.343       .  A
N1990      N1991   1.333       .  A
N1990     Mn1994   2.248       .  S
N1991      C1998   1.367       .  A
N1992      N1993   1.330       .  A
N1992     Mn1995   2.222       .  S
N1993      C1997   1.365       .  A
Mn1994    Cl1996   2.529       .  S
Mn1995    Cl1996   2.541       .  S
C1997      C2387   1.495       .  S
C1998      C2118   1.492       .  S
N1999      N2000   1.328       .  A
N1999      N2005   1.314       .  A
N1999     Mn2028   2.208   1_556  S
N2000      C2007   1.361       .  A
N2001      N2003   1.315       .  A
N2001      N2002   1.330       .  A
N2001     Mn2017   2.214   1_554  S
N2002      C2008   1.362       .  A
N2003      N2004   1.316       .  A
N2004      C2008   1.346       .  A
N2005      N2006   1.322       .  A
N2006      C2007   1.352       .  A
C2007      C2261   1.498       .  S
C2008      C2191   1.486       .  S
N2009      N2015   1.328       .  A
N2009      N2010   1.327       .  A
N2009     Mn2039   2.215       .  S
N2010      C2018   1.347       .  A
N2011     Mn2017   2.131   1_545  S
N2012      C2019   1.339   1_565  A
N2013      N2014   1.317       .  A
N2013     Mn2039   2.178       .  S
N2015      N2016   1.327       .  A
N2016      C2018   1.349       .  A
C2018      C2247   1.514       .  S
C2019      C2093   1.436       .  S
N2020      N2021   1.312       .  A
N2022      N2024   1.324       .  A
N2022      N2023   1.324       .  A
N2023      C2030   1.348       .  A
N2024      N2025   1.321       .  A
N2024     Mn2028   2.204       .  S
N2025      C2030   1.349       .  A
N2026      N2027   1.320       .  A
N2027      C2029   1.351       .  A
C2029      C2107   1.450       .  S
C2030      C2216   1.490       .  S
N2031      N2032   1.319   1_455  A
N2031      N2037   1.313   1_455  A
N2032      C2042   1.349       .  A
N2033      N2034   1.314       .  A
N2033      N2035   1.314       .  A
N2034      C2043   1.346       .  A
N2035      N2036   1.335       .  A
N2035     Mn2039   2.252   1_554  S
N2036      C2043   1.370       .  A
N2037      N2038   1.333       .  A
N2037     Mn2040   2.235   1_556  S
N2038      C2042   1.368       .  A
Mn2039    Cl2041   2.528   1_556  S
C2042      C2233   1.516       .  S
C2043      C2202   1.514       .  S
N2044      N2045   1.319       .  A
N2044     Mn2073   2.164       .  S
N2046      N2048   1.327       .  A
N2046      N2047   1.324       .  A
N2047      C2053   1.345       .  A
N2048      N2049   1.328       .  A
N2049      C2053   1.349       .  A
N2050      N2051   1.310   1_545  A
N2050     Mn2062   2.189   1_545  S
C2052      C2104   1.459       .  S
C2053      C2342   1.496       .  S
N2054      N2060   1.315       .  A
N2054      N2055   1.312       .  A
N2054     Mn2084   2.185       .  S
N2055      C2063   1.342       .  A
N2056      N2057   1.317       .  A
N2056      N2058   1.314       .  A
N2056     Mn2062   2.221       .  S
N2057      C2064   1.349       .  A
N2058      N2059   1.327       .  A
N2058     Mn2084   2.185       .  S
N2059      C2064   1.357       .  A
N2060      N2061   1.336       .  A
N2060     Mn2062   2.252       .  S
N2061      C2063   1.370       .  A
C2063      C2149   1.503       .  S
C2064      C2373   1.476       .  S
N2065      N2066   1.333       .  A
N2065      N2071   1.315       .  A
N2065     Mn2073   2.237       .  S
N2066      C2074   1.367       .  A
N2067      N2069   1.314       .  A
N2067      N2068   1.331       .  A
N2067     Mn2085   2.226       .  S
N2068      C2075   1.364       .  A
N2069      N2070   1.313       .  A
N2069     Mn2073   2.178       .  S
N2070      C2075   1.339       .  A
N2071      N2072   1.313       .  A
N2071     Mn2085   2.188       .  S
N2072      C2074   1.342       .  A
Mn2073    Cl2086   2.562       .  S
C2074      C2132   1.487       .  S
C2075      C2356   1.480       .  S
N2076      N2077   1.328       .  A
N2076      N2082   1.325       .  A
N2077      C2087   1.350       .  A
N2078      N2079   1.311       .  A
N2078     Mn2085   2.174       .  S
N2079      C2088   1.350       .  A
N2080      N2081   1.311       .  A
N2080     Mn2084   2.126       .  S
N2082      N2083   1.323       .  A
N2083      C2087   1.349       .  A
Mn2085    Cl2086   2.503       .  S
C2087      C2121   1.510       .  S
C2088      C2090   1.420       .  S
C2089      C2090   1.391       .  A
C2089      H2096   1.085       .  S
C2091      C2092   1.397       .  A
C2091      N2098   1.445       .  S
C2092      H2097   1.082       .  S
C2094      N2095   1.437       .  S
N2095      O2099   1.262       .  A
N2095      O2100   1.263       .  A
N2098      O2101   1.263       .  A
N2098      O2102   1.262       .  A
C2103      C2108   1.403       .  A
C2103      H2110   1.083       .  S
C2105      N2112   1.425       .  S
C2107      C2108   1.413       .  A
C2108      N2109   1.442       .  S
N2109      O2113   1.262       .  A
N2109      O2114   1.262       .  A
N2112      O2115   1.262       .  A
N2112      O2116   1.262       .  A
C2117      C2118   1.404       .  A
C2117      C2122   1.415       .  A
C2117      H2124   1.083       .  S
C2118      C2119   1.419       .  A
C2119      C2120   1.410       .  A
C2119      N2126   1.444       .  S
C2120      C2121   1.409       .  A
C2120      H2125   1.081       .  S
C2121      C2122   1.418       .  A
C2122      N2123   1.428       .  S
N2123      O2127   1.261       .  A
N2123      O2128   1.262       .  A
N2126      O2129   1.261       .  A
N2126      O2130   1.263   1_565  A
C2131      C2132   1.406       .  A
C2131      C2136   1.417       .  A
C2131      H2138   1.084       .  S
C2132      C2133   1.413       .  A
C2133      C2134   1.402       .  A
C2133      N2140   1.442       .  S
C2134      C2135   1.408       .  A
C2134      H2139   1.083       .  S
C2135      C2136   1.424       .  A
C2136      N2137   1.436       .  S
N2137      O2141   1.263       .  A
N2137      O2142   1.260       .  A
N2140      O2143   1.263       .  A
N2140      O2144   1.263       .  A
C2145      C2146   1.404       .  A
C2145      C2150   1.404       .  A
C2145      H2152   1.082       .  S
C2146      C2147   1.428       .  A
C2147      C2148   1.420       .  A
C2147      N2154   1.434       .  S
C2148      C2149   1.405       .  A
C2148      H2153   1.083       .  S
C2149      C2150   1.421       .  A
C2150      N2151   1.438       .  S
N2151      O2155   1.263       .  A
N2151      O2156   1.262       .  A
N2154      O2157   1.262       .  A
N2154      O2158   1.263       .  A
C2159      C2160   1.399       .  A
C2159      C2164   1.377       .  A
C2159      H2166   1.084       .  S
C2160      C2161   1.408       .  A
C2161      C2162   1.392       .  A
C2161      N2168   1.440       .  S
C2162      C2163   1.396       .  A
C2162      H2167   1.084       .  S
C2163      C2164   1.404       .  A
C2164      N2165   1.441       .  S
N2165      O2169   1.263       .  A
N2165      O2170   1.262       .  A
N2168      O2171   1.263       .  A
N2168      O2172   1.262       .  A
C2173      C2174   1.404       .  A
C2173      C2178   1.384       .  A
C2173      H2180   1.084       .  S
C2174      C2175   1.405       .  A
C2175      C2176   1.390       .  A
C2175      N2182   1.430       .  S
C2176      C2177   1.395       .  A
C2176      H2181   1.083       .  S
C2177      C2178   1.402       .  A
C2178      N2179   1.438       .  S
N2179      O2183   1.262       .  A
N2179      O2184   1.259       .  A
N2182      O2185   1.263       .  A
N2182      O2186   1.259       .  A
C2187      C2188   1.406       .  A
C2187      C2192   1.420       .  A
C2187      H2194   1.083       .  S
C2188      C2189   1.421       .  A
C2189      C2190   1.397       .  A
C2189      N2196   1.442       .  S
C2190      C2191   1.398       .  A
C2190      H2195   1.085       .  S
C2191      C2192   1.425       .  A
C2192      N2193   1.444       .  S
N2193      O2198   1.262   1_565  A
N2196      O2199   1.263       .  A
N2196      O2200   1.263       .  A
C2201      C2202   1.415       .  A
C2201      C2206   1.408       .  A
C2201      H2208   1.082       .  S
C2202      C2203   1.419       .  A
C2203      C2204   1.421       .  A
C2203      N2210   1.436       .  S
C2204      C2205   1.415       .  A
C2204      H2209   1.083       .  S
C2205      C2206   1.412       .  A
C2206      N2207   1.440       .  S
N2207      O2211   1.263       .  A
N2207      O2212   1.263       .  A
N2210      O2213   1.262       .  A
N2210      O2214   1.263       .  A
C2215      C2216   1.409       .  A
C2215      C2220   1.405       .  A
C2215      H2222   1.083       .  S
C2216      C2217   1.417       .  A
C2217      C2218   1.414       .  A
C2217      N2224   1.442       .  S
C2218      C2219   1.406       .  A
C2218      H2223   1.083       .  S
C2219      C2220   1.412       .  A
C2220      N2221   1.444       .  S
N2221      O2225   1.263       .  A
N2221      O2226   1.263       .  A
N2224      O2227   1.263       .  A
N2224      O2228   1.263       .  A
C2229      C2230   1.405       .  A
C2229      C2234   1.415       .  A
C2229      H2236   1.083       .  S
C2230      C2231   1.425       .  A
C2231      C2232   1.414       .  A
C2231      N2238   1.431       .  S
C2232      C2233   1.405       .  A
C2232      H2237   1.083       .  S
C2233      C2234   1.427       .  A
C2234      N2235   1.434   1_655  S
N2235      O2239   1.263       .  A
N2235      O2240   1.263       .  A
N2238      O2241   1.262       .  A
N2238      O2242   1.262       .  A
C2243      C2244   1.404       .  A
C2243      C2248   1.413       .  A
C2243      H2250   1.083       .  S
C2244      C2245   1.426       .  A
C2245      C2246   1.414       .  A
C2245      N2252   1.434       .  S
C2246      C2247   1.407       .  A
C2246      H2251   1.084       .  S
C2247      C2248   1.428       .  A
C2248      N2249   1.436       .  S
N2249      O2253   1.263       .  A
N2249      O2254   1.261       .  A
N2252      O2255   1.261       .  A
N2252      O2256   1.262       .  A
C2257      C2258   1.405       .  A
C2257      C2262   1.412       .  A
C2257      H2264   1.083       .  S
C2258      C2259   1.420       .  A
C2259      C2260   1.412       .  A
C2259      N2266   1.434       .  S
C2260      C2261   1.404       .  A
C2260      H2265   1.083       .  S
C2261      C2262   1.419       .  A
C2262      N2263   1.438       .  S
N2263      O2267   1.263   1_655  A
N2263      O2268   1.262       .  A
N2266      O2269   1.262       .  A
N2266      O2270   1.262       .  A
C2271      C2272   1.413       .  A
C2271      C2276   1.407       .  A
C2271      H2278   1.083       .  S
C2273      C2274   1.423   1_545  A
C2273      N2280   1.434       .  S
C2274      C2275   1.415   1_565  A
C2274      H2279   1.083       .  S
C2276      N2277   1.434       .  S
N2277      O2281   1.263       .  A
N2280      O2284   1.263   1_545  A
C2285      C2286   1.407   1_455  A
C2285      H2292   1.080   1_455  S
C2287      C2288   1.409       .  A
C2287      N2294   1.426       .  S
C2288      C2289   1.401       .  A
C2288      H2293   1.083       .  S
C2289      C2290   1.416       .  A
N2291      O2295   1.262       .  A
N2294      O2298   1.260       .  A
C2299      C2300   1.398       .  A
C2299      C2304   1.396       .  A
C2299      H2306   1.084       .  S
C2300      C2301   1.427       .  A
C2301      C2302   1.422       .  A
C2301      N2308   1.448       .  S
C2302      C2303   1.407       .  A
C2302      H2307   1.083       .  S
C2303      C2304   1.420       .  A
C2304      N2305   1.438       .  S
N2305      O2309   1.263       .  A
N2305      O2310   1.263       .  A
N2308      O2311   1.261       .  A
N2308      O2312   1.263       .  A
C2313      C2314   1.392       .  A
C2313      C2318   1.377       .  A
C2313      H2320   1.084       .  S
C2314      C2315   1.411       .  A
C2315      C2316   1.395       .  A
C2315      N2322   1.441       .  S
C2316      C2317   1.392       .  A
C2316      H2321   1.084       .  S
C2317      C2318   1.406       .  A
C2318      N2319   1.431       .  S
N2319      O2323   1.262       .  A
N2319      O2324   1.262       .  A
N2322      O2325   1.262   1_556  A
N2322      O2326   1.261       .  A
C2327      C2328   1.400       .  A
C2327      C2332   1.398       .  A
C2327      H2334   1.084       .  S
C2328      C2329   1.423       .  A
C2329      C2330   1.394       .  A
C2329      N2336   1.451       .  S
C2330      C2331   1.393       .  A
C2330      H2335   1.084       .  S
C2331      C2332   1.413       .  A
C2332      N2333   1.444       .  S
N2333      O2337   1.263       .  A
N2333      O2338   1.262       .  A
N2336      O2339   1.261       .  A
N2336      O2340   1.263       .  A
C2341      C2342   1.391       .  A
C2341      C2346   1.405       .  A
C2341      H2348   1.084       .  S
C2342      C2343   1.423       .  A
C2343      C2344   1.413       .  A
C2343      N2350   1.425       .  S
C2344      C2345   1.396       .  A
C2344      H2349   1.084       .  S
C2345      C2346   1.416       .  A
C2346      N2347   1.418       .  S
N2347      O2351   1.260       .  A
N2347      O2352   1.259       .  A
N2350      O2353   1.261       .  A
N2350      O2354   1.262       .  A
C2355      C2356   1.396       .  A
C2355      C2360   1.402       .  A
C2355      H2362   1.085       .  S
C2356      C2357   1.420       .  A
C2357      C2358   1.417       .  A
C2357      N2364   1.443       .  S
C2358      C2359   1.409       .  A
C2358      H2363   1.083       .  S
C2359      C2360   1.426       .  A
C2360      N2361   1.436       .  S
N2361      O2365   1.262       .  A
N2361      O2366   1.257       .  A
N2364      O2367   1.262       .  A
C2369      C2370   1.411       .  A
C2369      C2374   1.403       .  A
C2369      H2376   1.081       .  S
C2370      C2371   1.416       .  A
C2371      C2372   1.411       .  A
C2371      N2378   1.439       .  S
C2372      C2373   1.402       .  A
C2372      H2377   1.079       .  S
C2373      C2374   1.408       .  A
C2374      N2375   1.446       .  S
N2375      O2379   1.263       .  A
N2375      O2380   1.262       .  A
N2378      O2381   1.262       .  A
N2378      O2382   1.262       .  A
C2383      C2384   1.413       .  A
C2383      H2390   1.084       .  S
C2384      C2385   1.415       .  A
C2385      N2392   1.435       .  S
C2386      C2387   1.411   1_554  A
C2386      H2391   1.084   1_554  S
C2387      C2388   1.413       .  A
C2388      N2389   1.436       .  S
N2389      O2393   1.262   1_565  A
N2389      O2394   1.262       .  A
N2392      O2395   1.262       .  A
N2392      O2396   1.262       .  A
C2397      C2402   1.411   1_554  A
C2397      H2404   1.083       .  S
C2398      C2399   1.423       .  A
C2399      C2400   1.411   1_554  A
C2399      N2406   1.432       .  S
C2400      H2405   1.083       .  S
C2401      C2402   1.424       .  A
C2402      N2403   1.433       .  S
N2403      O2407   1.262       .  A
N2403      O2408   1.262       .  A
N2406      O2409   1.262       .  A
N2406      O2410   1.262       .  A
C2411      C2412   1.402       .  A
C2411      C2416   1.410   1_554  A
C2411      H2418   1.083       .  S
C2412      C2413   1.420       .  A
C2413      C2414   1.414   1_554  A
C2413      N2420   1.442       .  S
C2414      C2415   1.403       .  A
C2414      H2419   1.083       .  S
C2415      C2416   1.417       .  A
C2416      N2417   1.437       .  S
N2417      O2421   1.262       .  A
N2417      O2422   1.261       .  A
N2420      O2423   1.263       .  A
N2420      O2424   1.262       .  A
