geometry optimzed in LAMMPS
_audit_creation_date              2020-11-30 
_audit_creation_method            'lammps2cif' 
_symmetry_space_group_name_H-M    'P1' 
_symmetry_Int_Tables_number       1 
_symmetry_cell_setting            triclinic 
loop_ 
_symmetry_equiv_pos_as_xyz 
  x,y,z 
_cell_length_a                    41.86438986714336 
_cell_length_b                    37.03386483487963 
_cell_length_c                    29.876711377130484 
_cell_angle_alpha                 89.67988083861711 
_cell_angle_beta                  86.18363686392486 
_cell_angle_gamma                 116.21295687509456 
loop_ 
_atom_site_label 
_atom_site_type_symbol 
_atom_site_fract_x 
_atom_site_fract_y 
_atom_site_fract_z 
_atom_site_charge 
N1          N  0.36534699  0.16531402  0.07944638    -0.07020
N2          N  0.35876903  0.14836968  0.04040643    -0.59140
N3          N  0.41696207  0.22958796  0.14750704    -0.06700
N4          N  0.44446881  0.25504021  0.12094404    -0.61270
N5          N  0.41725291  0.19392423  0.14852263    -0.06300
N6          N  0.44472910  0.19581417  0.12209187    -0.59120
N7          N  0.36523315  0.20076083  0.07764190    -0.05980
N8          N  0.35860220  0.20868640  0.03736858    -0.61620
C9          C  0.35477248  0.17587360  0.01454458     0.95150
C10         C  0.46114162  0.23365226  0.10396795     0.94930
N11         N  0.33457063  0.24826266  0.22736456    -0.07210
N12         N  0.33837666  0.26534003  0.26630992    -0.59720
N13         N  0.31834530  0.23826033  0.12012827    -0.05330
N14         N  0.31365718  0.25024899  0.08041980    -0.60970
N15         N  0.28793963  0.22197467  0.14501449    -0.07240
N16         N  0.26186131  0.22230332  0.12237185    -0.59990
N17         N  0.36543460  0.26212771  0.20339409    -0.04970
N18         N  0.39105466  0.28889465  0.22642817    -0.61060
Mn19       Mn  0.36702816  0.23406443  0.13808893     1.18440
C20         C  0.37340638  0.29065114  0.26574341     0.97230
C21         C  0.27844209  0.24031129  0.08205324     0.97900
N22         N  0.36610041  0.11321732  0.21237147    -0.07260
N23         N  0.39177730  0.11610859  0.23833362    -0.63570
N24         N  0.28857247  0.07061949  0.15364365    -0.06060
N25         N  0.26194370  0.04432204  0.13207785    -0.64240
N26         N  0.31872936  0.08383861  0.12843080    -0.06770
N27         N  0.31311677  0.06670354  0.08921901    -0.63830
N28         N  0.33491891  0.09629496  0.23569440    -0.05660
N29         N  0.33856511  0.08688083  0.27683932    -0.64520
Mn30       Mn  0.36750657  0.13809360  0.14329199     1.10660
C31         C  0.37379635  0.09906991  0.27862887     0.98460
C32         C  0.27770692  0.04195364  0.09182781     0.98530
N33         N  0.23748981  0.13941055  0.20087667    -0.06770
N34         N  0.20652452  0.13622528  0.21841621    -0.62150
N35         N  0.28618917  0.13061089  0.27758142    -0.06090
N36         N  0.29263784  0.12173455  0.31756683    -0.58880
N37         N  0.28704292  0.16647902  0.27636139    -0.07400
N38         N  0.29452074  0.18294896  0.31571978    -0.61710
N39         N  0.23757732  0.10379906  0.20299578    -0.06390
N40         N  0.20683578  0.07682681  0.22239538    -0.58900
Mn41       Mn  0.28620686  0.19482032  0.21182584     1.20190
Mn42       Mn  0.28640235  0.09910362  0.21671548     1.10090
Cl43       Cl  0.32701996  0.16670900  0.17751366    -0.87290
C44         C  0.18765158  0.09727389  0.23249882     0.95460
C45         C  0.29771687  0.15448597  0.34112583     0.95260
N46         N  0.30183609  0.07072694  0.63971015    -0.07020
N47         N  0.27520626  0.04670722  0.61587275    -0.59140
N48         N  0.38140256  0.10814156  0.69575177    -0.06700
N49         N  0.40850611  0.10954458  0.71761020    -0.61270
N50         N  0.35161187  0.09162757  0.72183854    -0.06300
N51         N  0.35784363  0.08136561  0.76152346    -0.59120
N52         N  0.33222054  0.08436785  0.61466492    -0.05980
N53         N  0.32709983  0.06968708  0.57429597    -0.61620
C54         C  0.29173951  0.04627541  0.57507475     0.95150
C55         C  0.39327395  0.09235128  0.75874605     0.94930
N56         N  0.43098697  0.22702652  0.64083754    -0.07210
N57         N  0.46151296  0.25429116  0.62127325    -0.59720
N58         N  0.37893588  0.16695081  0.56865856    -0.05330
N59         N  0.37133914  0.15151886  0.52897505    -0.60970
N60         N  0.37917967  0.20253493  0.56928023    -0.07240
N61         N  0.37190941  0.21211301  0.53002549    -0.59990
N62         N  0.43076325  0.19119184  0.63998556    -0.04970
N63         N  0.46094070  0.19436280  0.61949957    -0.61060
Mn64       Mn  0.38131797  0.13669392  0.63050662     1.18440
C65         C  0.48003701  0.23375769  0.60779651     0.97230
C66         C  0.36718331  0.18006385  0.50517111     0.97900
N67         N  0.30540566  0.12715090  0.77102014    -0.07260
N68         N  0.30799825  0.11583460  0.81195969    -0.63570
N69         N  0.25291520  0.13832236  0.70314857    -0.06060
N70         N  0.22586590  0.13695179  0.72991907    -0.64240
N71         N  0.25245264  0.10228247  0.70327859    -0.06770
N72         N  0.22533369  0.07731603  0.73077011    -0.63830
N73         N  0.30560715  0.16275536  0.77104244    -0.05660
N74         N  0.30811350  0.17638884  0.81166244    -0.64520
Mn75       Mn  0.30237637  0.09635238  0.70787050     1.10660
C76         C  0.30951204  0.14690092  0.83683179     0.98460
C77         C  0.20934108  0.09926364  0.74827880     0.98530
N78         N  0.33139006  0.23567168  0.61759944    -0.06770
N79         N  0.32392248  0.24362402  0.57760367    -0.62150
N80         N  0.35236194  0.24619293  0.72460409    -0.06090
N81         N  0.35813454  0.26431414  0.76319571    -0.58880
N82         N  0.38182561  0.26053710  0.69788163    -0.07400
N83         N  0.40834087  0.28880155  0.71814666    -0.61710
N84         N  0.30226000  0.22049371  0.64506601    -0.06390
N85         N  0.27450065  0.21836975  0.62429770    -0.58900
Mn86       Mn  0.38144639  0.23297552  0.63202172     1.20190
Mn87       Mn  0.30313202  0.19289031  0.71006641     1.10090
Cl88       Cl  0.34204448  0.16471825  0.67020174    -0.86870
C89         C  0.28860777  0.23298948  0.58218088     0.95460
C90         C  0.39298770  0.29105008  0.75899293     0.95260
N91         N  0.18290956  0.38095288  0.43079967    -0.07020
N92         N  0.16867927  0.37713601  0.47187644    -0.59140
N93         N  0.24194257  0.43775261  0.35346729    -0.06700
N94         N  0.26641009  0.46580645  0.37621301    -0.61270
N95         N  0.21180224  0.44152156  0.35832805    -0.06300
N96         N  0.21629805  0.47129789  0.38570654    -0.59120
N97         N  0.21253385  0.37679184  0.42933830    -0.05980
N98         N  0.21925132  0.36974082  0.46995111    -0.61620
C99         C  0.19141776  0.36982018  0.49534384     0.95150
C100        C  0.25003273  0.48549905  0.39799894     0.94930
N101        N  0.25205186  0.34242102  0.27693823    -0.07210
N102        N  0.26846549  0.34581001  0.23700567    -0.59720
N103        N  0.24037004  0.32077271  0.38473432    -0.05330
N104        N  0.24999521  0.31398369  0.42363000    -0.60970
N105        N  0.22505250  0.28708668  0.36337335    -0.07240
N106        N  0.22437640  0.25650639  0.38765877    -0.59990
N107        N  0.26605390  0.37663217  0.29750823    -0.04970
N108        N  0.29246971  0.40440486  0.27117402    -0.61060
Mn109      Mn  0.24135622  0.37850674  0.36511803     1.18440
C110        C  0.29362133  0.38421062  0.23356526     0.97230
C111        C  0.24013821  0.27416862  0.42532530     0.97900
N112        N  0.13643970  0.39009604  0.30915336    -0.07260
N113        N  0.13334007  0.41927227  0.28653392    -0.63570
N114        N  0.09645974  0.30074559  0.37661046    -0.06060
N115        N  0.07096469  0.27283372  0.40383052    -0.64240
N116        N  0.11034874  0.33531167  0.39648435    -0.06770
N117        N  0.09490234  0.33175493  0.43713878    -0.63830
N118        N  0.12024572  0.35568198  0.28954317    -0.05660
N119        N  0.10617500  0.36040112  0.25345042    -0.64520
Mn120      Mn  0.15999453  0.38778525  0.37208078     1.10660
C121        C  0.11442109  0.39977568  0.25158713     0.98460
C122        C  0.07037562  0.29296656  0.44171883     0.98530
N123        N  0.15070441  0.23687929  0.31353110    -0.06770
N124        N  0.14556856  0.20614854  0.28755716    -0.62150
N125        N  0.14860398  0.30193181  0.24426154    -0.06090
N126        N  0.14255427  0.31484017  0.20633308    -0.58880
N127        N  0.17882545  0.29896260  0.24014585    -0.07400
N128        N  0.19387451  0.30935602  0.19899365    -0.61710
N129        N  0.12045503  0.24008617  0.31999899    -0.06390
N130        N  0.09507011  0.21057392  0.29990441    -0.58900
Mn131      Mn  0.20219953  0.29043891  0.29949507     1.20190
Mn132      Mn  0.12044934  0.29883150  0.30887078     1.10090
Cl133      Cl  0.18107895  0.33894744  0.33635929    -0.86870
C134        C  0.11092215  0.19005197  0.27868416     0.95460
C135        C  0.17097241  0.31955505  0.17885250     0.95260
N136        N  0.19900445  0.28479251  0.86883233    -0.07020
N137        N  0.22552918  0.28288681  0.88891139    -0.59140
N138        N  0.12102911  0.24662252  0.81131324    -0.06700
N139        N  0.09587847  0.22032700  0.78734729    -0.61270
N140        N  0.15187430  0.26260645  0.78723476    -0.06300
N141        N  0.14844520  0.24769611  0.74707713    -0.59120
N142        N  0.16879340  0.26633296  0.89372405    -0.05980
N143        N  0.17415036  0.25123489  0.93111256    -0.61620
C144        C  0.20955100  0.26157661  0.92781561     0.95150
C145        C  0.11375348  0.22123689  0.74717955     0.94930
N146        N  0.06762526  0.31028703  0.87352819    -0.07210
N147        N  0.03995537  0.30744529  0.90014836    -0.59720
N148        N  0.12117414  0.30101288  0.94100103    -0.05330
N149        N  0.13177238  0.29249624  0.97812658    -0.60970
N150        N  0.12079928  0.33639254  0.94271822    -0.07240
N151        N  0.13147986  0.35269612  0.98139994    -0.59990
N152        N  0.06846536  0.27489645  0.87334823    -0.04970
N153        N  0.04143799  0.24885689  0.90019690    -0.61060
Mn154      Mn  0.11915655  0.27080625  0.87886575     1.18440
C155        C  0.02426061  0.26951386  0.91788342     0.97230
C156        C  0.13823972  0.32485194  0.00279419     0.97900
N157        N  0.19763681  0.34657279  0.74552136    -0.07260
N158        N  0.19335184  0.33320987  0.70469914    -0.63570
N159        N  0.24651771  0.40639794  0.81957551    -0.06060
N160        N  0.27652657  0.43494839  0.80037066    -0.64240
N161        N  0.24782441  0.37132899  0.81837754    -0.06770
N162        N  0.27890053  0.37654542  0.79866630    -0.63830
N163        N  0.19695837  0.38159470  0.74716376    -0.05660
N164        N  0.19230205  0.39317604  0.70774218    -0.64520
Mn165      Mn  0.19965224  0.31559936  0.80567534     1.10660
C166        C  0.18994354  0.36267318  0.68196996     0.98460
C167        C  0.29655225  0.41618328  0.78719049     0.98530
N168        N  0.16409627  0.42103551  0.89850760    -0.06770
N169        N  0.16928423  0.43702883  0.93837436    -0.62150
N170        N  0.14786566  0.41321676  0.79091649    -0.06090
N171        N  0.14427997  0.42366569  0.75011017    -0.58880
N172        N  0.11654444  0.39412341  0.81346862    -0.07400
N173        N  0.09086621  0.39077009  0.78705218    -0.61710
N174        N  0.19419303  0.43612761  0.87315684    -0.06390
N175        N  0.22039168  0.46261181  0.89507441    -0.58900
Mn176      Mn  0.11642971  0.36635837  0.88125785     1.20190
Mn177      Mn  0.19673866  0.41039715  0.80877053     1.10090
Cl178      Cl  0.15785570  0.34061062  0.84393637    -0.86870
C179        C  0.20442081  0.46305218  0.93586025     0.95460
C180        C  0.10893824  0.40988171  0.74732291     0.95260
N181        N  0.47478842  0.41415759  0.97087125    -0.07020
N182        N  0.44926378  0.38672303  0.94871424    -0.59140
N183        N  0.05119497  0.45078056  0.03081045    -0.06700
N184        N  0.07672254  0.45091613  0.05504580    -0.61270
N185        N  0.02001973  0.43312900  0.05387683    -0.06300
N186        N  0.02353255  0.42070487  0.09361207    -0.59120
N187        N  0.50539014  0.42872632  0.94645005    -0.05980
N188        N  0.50124349  0.41155331  0.90716415    -0.61620
C189        C  0.46620381  0.38521780  0.90887359     0.95150
C190        C  0.05866588  0.43149811  0.09418466     0.94930
N191        N  0.10392874  0.07130682  0.97752245    -0.07210
N192        N  0.13194410  0.09657509  0.95148142    -0.59720
N193        N  0.05349740  0.51373231  0.90653315    -0.05330
N194        N  0.54588688  0.49784216  0.86743103    -0.60970
N195        N  0.05273979  0.04887297  0.90725538    -0.07240
N196        N  0.04425244  0.05747305  0.86829029    -0.59990
N197        N  0.10337795  0.03521222  0.97768425    -0.04970
N198        N  0.13131031  0.03691556  0.95255945    -0.61060
Mn199      Mn  0.05390191  0.48138645  0.96628565     1.18440
C200        C  0.14842040  0.07480371  0.93488617     0.97230
C201        C  0.54017417  0.52523474  0.84409374     0.97900
N202        N  0.97257022  0.46618977  0.10130675    -0.07260
N203        N  0.97606311  0.45346900  0.14112042    -0.63570
N204        N  0.42433440  0.48204728  0.02957355    -0.06060
N205        N  0.39427632  0.47827003  0.05104932    -0.64240
N206        N  0.42389123  0.44619687  0.02644063    -0.06770
N207        N  0.39338531  0.41849684  0.04543471    -0.63830
N208        N  0.97389640  0.00225813  0.10317543    -0.05660
N209        N  0.97867100  0.01522352  0.14412245    -0.64520
Mn210      Mn  0.47225209  0.43872404  0.03718149     1.10660
C211        C  0.98012421  0.98462668  0.16703456     0.98460
C212        C  0.37525848  0.43864564  0.06162926     0.98530
N213        N  0.50604362  0.08443400  0.95483242    -0.06770
N214        N  0.50081734  0.09670549  0.91554025    -0.62150
N215        N  0.02167794  0.08682082  0.06294161    -0.06090
N216        N  0.02496296  0.10026724  0.10385738    -0.58880
N217        N  0.05285717  0.10177840  0.03964520    -0.07400
N218        N  0.07819272  0.12556302  0.06532979    -0.61710
N219        N  0.47570186  0.06723811  0.97972851    -0.06390
N220        N  0.44932025  0.06742017  0.95769409    -0.58900
Mn221      Mn  0.05457295  0.07828418  0.97071853     1.20190
Mn222      Mn  0.47352699  0.03545224  0.04316397     1.10090
Cl223      Cl  0.01366574  0.00856889  0.00418952    -0.86870
C224        C  0.46542465  0.08624120  0.91757725     0.95460
C225        C  0.06003896  0.12447338  0.10549727     0.95260
N226        N  0.98600148  0.03971607  0.41235172    -0.07020
N227        N  0.99986089  0.04312931  0.37080239    -0.59140
N228        N  0.43188880  0.04377806  0.49509898    -0.06700
N229        N  0.40661563  0.04883730  0.47570576    -0.61270
N230        N  0.46254256  0.07657227  0.48739725    -0.06300
N231        N  0.45764624  0.10278578  0.46174880    -0.59120
N232        N  0.45516644  0.50746534  0.41793702    -0.05980
N233        N  0.44737930  0.48827807  0.38034309    -0.61620
C234        C  0.97541793  0.51079129  0.35136731     0.95150
C235        C  0.42286171  0.08494760  0.45353675     0.94930
N236        N  0.42221466  0.43926538  0.57377843    -0.07210
N237        N  0.40866683  0.42946498  0.61552686    -0.59720
N238        N  0.42784130  0.42586629  0.46637192    -0.05330
N239        N  0.41405133  0.40791662  0.42985462    -0.60970
N240        N  0.44437775  0.40752190  0.48551534    -0.07240
N241        N  0.44194262  0.37619984  0.46168731    -0.59990
N242        N  0.40794924  0.45969532  0.55382141    -0.04970
N243        N  0.38398051  0.46384307  0.58210446    -0.61060
Mn244      Mn  0.42968104  0.48388913  0.48463555     1.18440
C245        C  0.38494415  0.44474324  0.62080039     0.97230
C246        C  0.42272316  0.37715595  0.42693783     0.97900
N247        N  0.03822214  0.09907232  0.53198722    -0.07260
N248        N  0.04061816  0.13076883  0.55497238    -0.63570
N249        N  0.07492496  0.04686509  0.46522360    -0.06060
N250        N  0.10070879  0.04503196  0.43829069    -0.64240
N251        N  0.06053611  0.06699764  0.44488432    -0.06770
N252        N  0.07592581  0.07924567  0.40430120    -0.63830
N253        N  0.05447272  0.08087347  0.55198104    -0.05660
N254        N  0.06810525  0.09933839  0.58839203    -0.64520
Mn255      Mn  0.01237917  0.07191069  0.47006894     1.10660
C256        C  0.05937358  0.13011625  0.59031222     0.98460
C257        C  0.10089574  0.06571353  0.40036222     0.98530
N258        N  0.02083359  0.42992221  0.53264041    -0.06770
N259        N  0.02529839  0.40461759  0.56037406    -0.62150
N260        N  0.02643773  0.99908897  0.59986790    -0.06090
N261        N  0.03478826  0.01684029  0.63806608    -0.58880
N262        N  0.49622489  0.46603473  0.60520150    -0.07400
N263        N  0.48335928  0.46010879  0.64731855    -0.61710
N264        N  0.05147969  0.46297843  0.52567375    -0.06390
N265        N  0.07622471  0.45884978  0.54764009    -0.58900
Mn266      Mn  0.47028673  0.43417266  0.54786977     1.20190
Mn267      Mn  0.05280101  0.02279143  0.53422300     1.10090
Cl268      Cl  0.99136348  0.00306715  0.50898900    -0.86870
C269        C  0.05969210  0.42304659  0.57042751     0.95460
C270        C  0.00767172  0.99223209  0.66687013     0.95260
C271        C  0.52538911  0.51660500  0.80086501    -0.06370
C272        C  0.01141227  0.47655702  0.78754737    -0.33800
C273        C  0.00210549  0.96737857  0.74414099     0.35450
C274        C  0.00681726  0.99863345  0.71402415    -0.06730
C275        C  0.51750907  0.03799273  0.72813140    -0.33700
C276        C  0.52656331  0.04714305  0.77187780     0.35360
H277        H  0.00934538  0.45251216  0.81008958     0.15730
O278        O  0.99297005  0.42906398  0.73006167    -0.61200
H279        H  0.52094268  0.06199751  0.70449112     0.15740
O280        O  0.53942259  0.08628562  0.78456812    -0.61290
H281        H  0.51790218  0.09040517  0.79215196     0.42740
H282        H  0.96702211  0.41380442  0.73853689     0.42690
C283        C  0.98470409  0.98562374  0.21455838    -0.06370
C284        C  0.45815761  0.45622161  0.24310271    -0.33800
C285        C  0.45576351  0.46303645  0.28863930     0.35450
C286        C  0.98024502  0.49972064  0.30545515    -0.06730
C287        C  0.00922801  0.02683786  0.27736156    -0.33700
C288        C  0.01149804  0.01988210  0.23192854     0.35360
H289        H  0.43767897  0.42952874  0.22963898     0.15730
O290        O  0.42827795  0.43469813  0.31565240    -0.61200
H291        H  0.02915306  0.05440791  0.28999859     0.15740
O292        O  0.03925358  0.04729444  0.20440544    -0.61290
H293        H  0.03038948  0.06618356  0.19343679     0.42740
H294        H  0.43844131  0.41764448  0.32837624     0.42690
C295        C  0.07212851  0.41589786  0.61454178    -0.06370
C296        C  0.04749696  0.39183369  0.64993720    -0.33800
C297        C  0.05833863  0.38941530  0.69343486     0.35450
C298        C  0.09433075  0.41176439  0.70287732    -0.06730
C299        C  0.11873040  0.43544273  0.66730397    -0.33700
C300        C  0.10810197  0.43773081  0.62415573     0.35360
H301        H  0.01946771  0.37543552  0.64427481     0.15730
O302        O  0.03346095  0.36532024  0.72627316    -0.61200
H303        H  0.14671125  0.45279824  0.67276804     0.15740
O304        O  0.13341979  0.46159727  0.59147596    -0.61290
H305        H  0.13791975  0.48959313  0.59810413     0.42740
H306        H  0.03251104  0.33825950  0.72275727     0.42690
C307        C  0.09851669  0.19897676  0.70632395    -0.06370
C308        C  0.06203145  0.18411315  0.69898653    -0.33800
C309        C  0.04873922  0.16436689  0.65915015     0.35450
C310        C  0.07206757  0.15948296  0.62611626    -0.06730
C311        C  0.10832317  0.17490209  0.63334666    -0.33700
C312        C  0.12158546  0.19419838  0.67266564     0.35360
H313        H  0.04382895  0.18745109  0.72423515     0.15730
O314        O  0.01275684  0.14756075  0.65438805    -0.61200
H315        H  0.12641152  0.17008886  0.60913448     0.15740
O316        O  0.15685366  0.20556488  0.67925368    -0.61290
H317        H  0.17071128  0.22885313  0.65809867     0.42740
H318        H  0.50959325  0.16581929  0.63265727     0.42690
C319        C  0.32258433  0.43045547  0.74714316    -0.06370
C320        C  0.35195063  0.42185195  0.74476490    -0.33800
C321        C  0.37313219  0.42790127  0.70444430     0.35450
C322        C  0.36476214  0.44219592  0.66481644    -0.06730
C323        C  0.33622487  0.45245597  0.66769441    -0.33700
C324        C  0.31512048  0.44652759  0.70824567     0.35360
H325        H  0.35798694  0.40933107  0.77408703     0.15730
O326        O  0.40207615  0.41974351  0.70440934    -0.61200
H327        H  0.32930983  0.46360901  0.63805825     0.15740
O328        O  0.28600107  0.45436996  0.70871731    -0.61290
H329        H  0.26724545  0.43067776  0.69533850     0.42740
H330        H  0.39221419  0.39005273  0.70280751     0.42690
C331        C  0.18810513  0.36718904  0.54288806    -0.06370
C332        C  0.17403663  0.32952403  0.56492377    -0.33800
C333        C  0.17280466  0.32719472  0.61126650     0.35450
C334        C  0.18590607  0.36301318  0.63474910    -0.06730
C335        C  0.19683770  0.40038533  0.61244246    -0.33700
C336        C  0.19758320  0.40248021  0.56633425     0.35360
H337        H  0.16402413  0.30221799  0.54632402     0.15730
O338        O  0.15919024  0.29018464  0.63310141    -0.61200
H339        H  0.20602441  0.42809024  0.63044776     0.15740
O340        O  0.20876337  0.43908402  0.54427823    -0.61290
H341        H  0.18686382  0.44279619  0.54206012     0.42740
H342        H  0.13358271  0.28282189  0.64070564     0.42690
C343        C  0.17402546  0.33079527  0.13197762    -0.06370
C344        C  0.18099397  0.30680818  0.10099724    -0.33800
C345        C  0.17123799  0.30636385  0.05759110     0.35450
C346        C  0.15482817  0.33061326  0.04508081    -0.06730
C347        C  0.15263171  0.35875495  0.07450715    -0.33700
C348        C  0.16186309  0.35862539  0.11832175     0.35360
H349        H  0.19073676  0.28561214  0.11141530     0.15730
O350        O  0.17635781  0.28071797  0.02843677    -0.61200
H351        H  0.14135246  0.37865884  0.06474320     0.15740
O352        O  0.15716370  0.38410057  0.14828955    -0.61290
H353        H  0.13099100  0.37277093  0.15537638     0.42740
H354        H  0.19902021  0.29791565  0.01072884     0.42690
C355        C  0.07414940  0.42601754  0.13534608    -0.06370
C356        C  0.10956510  0.45152116  0.14452420    -0.33800
C357        C  0.12292428  0.44646484  0.18500865     0.35450
C358        C  0.10057229  0.41583506  0.21660457    -0.06730
C359        C  0.06502545  0.39184990  0.20798682    -0.33700
C360        C  0.05192454  0.39620541  0.16790568     0.35360
H361        H  0.12679873  0.47512096  0.12035262     0.15730
O362        O  0.15785974  0.47061473  0.19261421    -0.61200
H363        H  0.04768711  0.36762098  0.23154248     0.15740
O364        O  0.01741873  0.37000835  0.16045818    -0.61290
H365        H  0.01913416  0.34739179  0.14459779     0.42740
H366        H  0.17069807  0.45402005  0.18627856     0.42690
C367        C  0.07497242  0.14245094  0.14877469    -0.06370
C368        C  0.05127198  0.14477700  0.18313187    -0.33800
C369        C  0.06196475  0.15689272  0.22622390     0.35450
C370        C  0.09765016  0.16897481  0.23609979    -0.06730
C371        C  0.12158941  0.16668718  0.20180959    -0.33700
C372        C  0.11040325  0.15318699  0.15877384     0.35360
H373        H  0.02368748  0.13621025  0.17693917     0.15730
O374        O  0.03720067  0.15757784  0.25822976    -0.61200
H375        H  0.14932256  0.17624312  0.20790923     0.15740
O376        O  0.13428008  0.15049787  0.12696563    -0.61290
H377        H  0.13342411  0.12367205  0.13270251     0.42740
H378        H  0.02701490  0.13079835  0.27407966     0.42690
C379        C  0.35097447  0.42398662  0.10357428    -0.06370
C380        C  0.34653001  0.38796486  0.12497527    -0.33800
C381        C  0.33003068  0.37658447  0.16833976     0.35450
C382        C  0.31662935  0.40066815  0.19146133    -0.06730
C383        C  0.32035749  0.43639802  0.17030053    -0.33700
C384        C  0.33744473  0.44820371  0.12672613     0.35360
H385        H  0.35697281  0.36890089  0.10872994     0.15730
O386        O  0.32707562  0.34152420  0.18795904    -0.61200
H387        H  0.30913506  0.45457406  0.18696898     0.15740
O388        O  0.34013967  0.48300077  0.10680315    -0.61290
H389        H  0.35967054  0.50517686  0.12113593     0.42740
H390        H  0.34841762  0.34968875  0.20533819     0.42690
C391        C  0.41257668  0.09064310  0.79853668    -0.06370
C392        C  0.39265260  0.06843268  0.83754566    -0.33800
C393        C  0.40912655  0.06750223  0.87671839     0.35450
C394        C  0.44651219  0.08901321  0.87783086    -0.06730
C395        C  0.46644647  0.11160173  0.83898730    -0.33700
C396        C  0.44994053  0.11231805  0.79965027     0.35360
H397        H  0.36393570  0.05134114  0.83773442     0.15730
O398        O  0.38824970  0.04531102  0.91360527    -0.61200
H399        H  0.49513945  0.12883807  0.83898732     0.15740
O400        O  0.47058792  0.13523367  0.76303986    -0.61290
H401        H  0.47909091  0.11757198  0.74653569     0.42740
H402        H  0.38508797  0.01746296  0.90898279     0.42690
C403        C  0.16720909  0.08314051  0.88851968    -0.06370
C404        C  0.17329989  0.05268363  0.86703171    -0.33800
C405        C  0.18517992  0.05640908  0.82120814     0.35450
C406        C  0.19135373  0.09119605  0.79510061    -0.06730
C407        C  0.18546211  0.12172787  0.81666864    -0.33700
C408        C  0.17362093  0.11802919  0.86247755     0.35360
H409        H  0.16814425  0.02519954  0.88559911     0.15730
O410        O  0.19038407  0.02554144  0.80237225    -0.61200
H411        H  0.19059894  0.14920020  0.79810979     0.15740
O412        O  0.16853773  0.14896854  0.88133113    -0.61290
H413        H  0.14519084  0.14574071  0.87183162     0.42740
H414        H  0.21371346  0.02881332  0.81198689     0.42690
C415        C  0.44804688  0.36094634  0.87029774    -0.06370
C416        C  0.41075236  0.34468550  0.87012804    -0.33800
C417        C  0.39279055  0.32266492  0.83398713     0.35450
C418        C  0.41199025  0.31637482  0.79651964    -0.06730
C419        C  0.44933933  0.33270647  0.79654699    -0.33700
C420        C  0.46735123  0.35468985  0.83291805     0.35360
H421        H  0.39526729  0.34933941  0.89804182     0.15730
O422        O  0.35641157  0.30844872  0.83518295    -0.61200
H423        H  0.46464096  0.32770524  0.76870112     0.15740
O424        O  0.50362466  0.36819043  0.83253909    -0.61290
H425        H  0.51412825  0.39028704  0.80924358     0.42740
H426        H  0.34652938  0.28429594  0.85578649     0.42690
C427        C  0.27493456  0.02634675  0.53387605    -0.06370
C428        C  0.28508261  0.99806221  0.51516740    -0.33800
C429        C  0.27694107  0.48451611  0.47155157     0.35450
C430        C  0.25950983  0.50073330  0.44431216    -0.06730
C431        C  0.24815380  0.52812615  0.46375372    -0.33700
C432        C  0.25572516  0.04090542  0.50805237     0.35360
H433        H  0.29972781  0.98643968  0.53458137     0.15730
O434        O  0.28410103  0.45352243  0.45680749    -0.61200
H435        H  0.23392860  0.54022166  0.44426863     0.15740
O436        O  0.24646777  0.06973957  0.52451577    -0.61290
H437        H  0.22276368  0.05452897  0.54102194     0.42740
H438        H  0.30891931  0.46024313  0.46359188     0.42690
C439        C  0.04816776  0.27605349  0.48479064    -0.06370
C440        C  0.04739525  0.30318266  0.51722922    -0.33800
C441        C  0.52705335  0.28969957  0.55829071     0.35450
C442        C  0.50717550  0.24824896  0.56860465    -0.06730
C443        C  0.50908523  0.22084815  0.53708990    -0.33700
C444        C  0.02902486  0.23443232  0.49534096     0.35360
H445        H  0.06211621  0.33538664  0.51052179     0.15730
O446        O  0.52651667  0.31748900  0.58802628    -0.61200
H447        H  0.49381470  0.18872087  0.54386807     0.15740
O448        O  0.02979409  0.20678789  0.46549058    -0.61290
H449        H  0.00801900  0.19890336  0.44904612     0.42740
H450        H  0.50840329  0.32547156  0.57782277     0.42690
C451        C  0.26829392  0.23452205  0.54424456    -0.06370
C452        C  0.24870307  0.25678687  0.54734747    -0.33800
C453        C  0.23651607  0.26656677  0.50877005     0.35450
C454        C  0.24374776  0.25398502  0.46626780    -0.06730
C455        C  0.26012522  0.22818537  0.46390923    -0.33700
C456        C  0.27225202  0.21832171  0.50277773     0.35360
H457        H  0.24497217  0.26895705  0.57910099     0.15730
O458        O  0.21939422  0.29064057  0.51257883    -0.61200
H459        H  0.26565718  0.21793919  0.43173317     0.15740
O460        O  0.28925123  0.19411535  0.49975987    -0.61290
H461        H  0.27000612  0.16622550  0.50433526     0.42740
H462        H  0.19472756  0.27342690  0.50455390     0.42690
C463        C  0.31760396  0.15190072  0.88380403    -0.06370
C464        C  0.32531146  0.18931858  0.90225591    -0.33800
C465        C  0.33750005  0.19764417  0.94475722     0.35450
C466        C  0.34212478  0.16814847  0.96960900    -0.06730
C467        C  0.33297700  0.13006797  0.95199645    -0.33700
C468        C  0.32071703  0.12177842  0.90928297     0.35360
H469        H  0.32282204  0.21283995  0.88331460     0.15730
O470        O  0.34578428  0.23511815  0.96089895    -0.61200
H471        H  0.33547744  0.10665401  0.97116472     0.15740
O472        O  0.31175958  0.08427359  0.89295990    -0.61290
H473        H  0.33481180  0.08399750  0.88365464     0.42740
H474        H  0.32273250  0.23382108  0.97341159     0.42690
C475        C  0.35117893  0.17343922  0.46192662    -0.06370
C476        C  0.35148677  0.20631595  0.43811447    -0.33800
C477        C  0.33282869  0.20051289  0.39978905     0.35450
C478        C  0.31381999  0.16142440  0.38437930    -0.06730
C479        C  0.31381938  0.12858457  0.40800501    -0.33700
C480        C  0.33231626  0.13430672  0.44638806     0.35360
H481        H  0.36574687  0.23662925  0.44963382     0.15730
O482        O  0.33427118  0.23342025  0.37708367    -0.61200
H483        H  0.29959963  0.09824432  0.39654040     0.15740
O484        O  0.33031262  0.10117159  0.46937109    -0.61290
H485        H  0.35413601  0.10186463  0.46370482     0.42740
H486        H  0.35496872  0.24117949  0.35469472     0.42690
C487        C  0.38864716  0.09667706  0.32206474    -0.06370
C488        C  0.36529693  0.06842402  0.35493874    -0.33800
C489        C  0.37566709  0.06558980  0.39775668     0.35450
C490        C  0.40996411  0.09213092  0.41009758    -0.06730
C491        C  0.43349638  0.12103604  0.37733616    -0.33700
C492        C  0.42312320  0.12331481  0.33364461     0.35360
H493        H  0.33852363  0.04759289  0.34733621     0.15730
O494        O  0.35188351  0.03596178  0.42712311    -0.61200
H495        H  0.46035215  0.14128498  0.38514411     0.15740
O496        O  0.44679376  0.15166406  0.30286660    -0.61290
H497        H  0.44274314  0.17589054  0.30721741     0.42740
H498        H  0.35342104  0.01110197  0.41772134     0.42690
C499        C  0.12399169  0.07291183  0.35838277    -0.06370
C500        C  0.13075275  0.04228165  0.33918362    -0.33800
C501        C  0.14907918  0.04839719  0.29641336     0.35450
C502        C  0.16132138  0.08581513  0.27245337    -0.06730
C503        C  0.15370271  0.11586532  0.29181370    -0.33700
C504        C  0.13572392  0.10985570  0.33427113     0.35360
H505        H  0.12117598  0.01334494  0.35684911     0.15730
O506        O  0.15548090  0.01789250  0.27890599    -0.61200
H507        H  0.16323871  0.14507493  0.27494881     0.15740
O508        O  0.13033301  0.14080801  0.35253299    -0.61290
H509        H  0.15177391  0.15634021  0.36898385     0.42740
H510        H  0.13329386  0.00027617  0.26490053     0.42690
C511        C  0.41068614  0.34919674  0.38960868    -0.06370
C512        C  0.43491929  0.34320608  0.35913662    -0.33800
C513        C  0.42410731  0.32554845  0.31743909     0.35450
C514        C  0.38869832  0.31362219  0.30610724    -0.06730
C515        C  0.36487644  0.31955245  0.33706804    -0.33700
C516        C  0.37536949  0.33660703  0.37820996     0.35360
H517        H  0.46250797  0.35389334  0.36666741     0.15730
O518        O  0.44806023  0.31957838  0.28862778    -0.61200
H519        H  0.33741554  0.31037774  0.32971017     0.15740
O520        O  0.35067673  0.34099240  0.40744212    -0.61290
H521        H  0.34711952  0.36355697  0.39448399     0.42740
H522        H  0.46042601  0.34490257  0.27001744     0.42690
C523        C  0.22354901  0.48407911  0.97517603    -0.06370
C524        C  0.20378920  0.98409852  0.01510164    -0.33800
C525        C  0.22082388  0.00187438  0.05358894     0.35450
C526        C  0.25843726  0.02052197  0.05272574    -0.06730
C527        C  0.27817685  0.52040532  0.01280524    -0.33700
C528        C  0.26115735  0.50224840  0.97448868     0.35360
H529        H  0.17487308  0.97012442  0.01668940     0.15730
O530        O  0.20033280  0.00150021  0.09148192    -0.61200
H531        H  0.30708761  0.53438319  0.01116374     0.15740
O532        O  0.28168991  0.50227163  0.93674846    -0.61290
H533        H  0.28623480  0.47839634  0.94087916     0.42740
H534        H  0.19258898  0.97454828  0.10611669     0.42690
C535        C  0.48008840  0.24336635  0.05758602    -0.06370
C536        C  0.98843323  0.28075874  0.03611156    -0.33800
C537        C  0.00071709  0.28884561  0.99041436     0.35450
C538        C  0.00558471  0.25950394  0.96442642    -0.06730
C539        C  0.49739592  0.22214354  0.98592391    -0.33700
C540        C  0.48494040  0.21399903  0.03165090     0.35360
H541        H  0.98474596  0.30387839  0.05463525     0.15730
O542        O  0.00872603  0.32615376  0.97202960    -0.61200
H543        H  0.50118135  0.19910217  0.96736333     0.15740
O544        O  0.47673557  0.17667061  0.05011674    -0.61290
H545        H  0.49927041  0.17903947  0.06150784     0.42740
H546        H  0.98624823  0.32351231  0.96019645     0.42690
C547        C  0.26052228  0.24526516  0.04260064    -0.06370
C548        C  0.27897061  0.27823992  0.01211391    -0.33800
C549        C  0.26328081  0.28328390  0.97386804     0.35450
C550        C  0.22850360  0.25494879  0.96521482    -0.06730
C551        C  0.21033440  0.22158009  0.99528658    -0.33700
C552        C  0.22604854  0.21658778  0.03350537     0.35360
H553        H  0.30554007  0.30064067  0.01834950     0.15730
O554        O  0.28135900  0.31730082  0.94675857    -0.61200
H555        H  0.18366109  0.19931461  0.98926030     0.15740
O556        O  0.20795784  0.18272842  0.06075993    -0.61290
H557        H  0.19565575  0.19101322  0.08511051     0.42740
H558        H  0.29748849  0.31106033  0.92583857     0.42690
N559        N  0.36534700  0.66531400  0.07944637    -0.07020
N560        N  0.35876900  0.64836965  0.04040642    -0.59140
N561        N  0.41696210  0.72958794  0.14750702    -0.06700
N562        N  0.44446884  0.75504018  0.12094402    -0.61270
N563        N  0.41725293  0.69392420  0.14852260    -0.06300
N564        N  0.44472911  0.69581413  0.12209183    -0.59120
N565        N  0.36523317  0.70076082  0.07764189    -0.05980
N566        N  0.35860219  0.70868638  0.03736858    -0.61620
C567        C  0.35477244  0.67587356  0.01454458     0.95150
C568        C  0.46114164  0.73365222  0.10396791     0.94930
N569        N  0.33457067  0.74826266  0.22736455    -0.07210
N570        N  0.33837670  0.76534004  0.26630991    -0.59720
N571        N  0.31834534  0.73826032  0.12012827    -0.05330
N572        N  0.31365722  0.75024897  0.08041979    -0.60970
N573        N  0.28793967  0.72197468  0.14501449    -0.07240
N574        N  0.26186135  0.72230334  0.12237185    -0.59990
N575        N  0.36543464  0.76212770  0.20339409    -0.04970
N576        N  0.39105470  0.78889464  0.22642817    -0.61060
Mn577      Mn  0.36702819  0.73406442  0.13808892     1.18440
C578        C  0.37340642  0.79065113  0.26574341     0.97230
C579        C  0.27844213  0.74031128  0.08205323     0.97900
N580        N  0.36610042  0.61321730  0.21237146    -0.07260
N581        N  0.39177731  0.61610857  0.23833361    -0.63570
N582        N  0.28857247  0.57061949  0.15364365    -0.06060
N583        N  0.26194370  0.54432203  0.13207786    -0.64240
N584        N  0.31872936  0.58383860  0.12843079    -0.06770
N585        N  0.31311677  0.56670352  0.08921901    -0.63830
N586        N  0.33491891  0.59629495  0.23569439    -0.05660
N587        N  0.33856511  0.58688082  0.27683931    -0.64520
Mn588      Mn  0.36750658  0.63809358  0.14329198     1.10660
C589        C  0.37379635  0.59906990  0.27862886     0.98460
C590        C  0.27770691  0.54195363  0.09182781     0.98530
N591        N  0.23748983  0.63941056  0.20087668    -0.06770
N592        N  0.20652454  0.63622530  0.21841622    -0.62150
N593        N  0.28618919  0.63061089  0.27758142    -0.06090
N594        N  0.29263785  0.62173455  0.31756682    -0.58880
N595        N  0.28704294  0.66647903  0.27636138    -0.07400
N596        N  0.29452076  0.68294897  0.31571977    -0.61710
N597        N  0.23757734  0.60379907  0.20299577    -0.06390
N598        N  0.20683580  0.57682683  0.22239538    -0.58900
Mn599      Mn  0.28620689  0.69482032  0.21182584     1.20190
Mn600      Mn  0.28640236  0.59910362  0.21671547     1.10090
Cl601      Cl  0.32701998  0.66670899  0.17751365    -0.87290
C602        C  0.18765160  0.59727391  0.23249882     0.95460
C603        C  0.29771688  0.65448597  0.34112582     0.95260
N604        N  0.30183609  0.57072694  0.63971016    -0.07020
N605        N  0.27520626  0.54670722  0.61587277    -0.59140
N606        N  0.38140256  0.60814158  0.69575178    -0.06700
N607        N  0.40850612  0.60954460  0.71761022    -0.61270
N608        N  0.35161187  0.59162758  0.72183855    -0.06300
N609        N  0.35784364  0.58136563  0.76152347    -0.59120
N610        N  0.33222054  0.58436785  0.61466493    -0.05980
N611        N  0.32709983  0.56968708  0.57429599    -0.61620
C612        C  0.29173950  0.54627541  0.57507477     0.95150
C613        C  0.39327395  0.59235131  0.75874607     0.94930
N614        N  0.43098697  0.72702652  0.64083753    -0.07210
N615        N  0.46151296  0.75429116  0.62127323    -0.59720
N616        N  0.37893588  0.66695080  0.56865856    -0.05330
N617        N  0.37133914  0.65151886  0.52897506    -0.60970
N618        N  0.37917967  0.70253492  0.56928023    -0.07240
N619        N  0.37190941  0.71211301  0.53002549    -0.59990
N620        N  0.43076325  0.69119185  0.63998555    -0.04970
N621        N  0.46094070  0.69436280  0.61949955    -0.61060
Mn622      Mn  0.38131797  0.63669393  0.63050663     1.18440
C623        C  0.48003701  0.73375769  0.60779649     0.97230
C624        C  0.36718330  0.68006384  0.50517111     0.97900
N625        N  0.30540566  0.62715090  0.77102015    -0.07260
N626        N  0.30799822  0.61583458  0.81195970    -0.63570
N627        N  0.25291519  0.63832236  0.70314858    -0.06060
N628        N  0.22586590  0.63695179  0.72991908    -0.64240
N629        N  0.25245263  0.60228248  0.70327859    -0.06770
N630        N  0.22533369  0.57731603  0.73077012    -0.63830
N631        N  0.30560715  0.66275537  0.77104245    -0.05660
N632        N  0.30811346  0.67638883  0.81166246    -0.64520
Mn633      Mn  0.30237637  0.59635238  0.70787051     1.10660
C634        C  0.30951199  0.64690090  0.83683180     0.98460
C635        C  0.20934108  0.59926365  0.74827882     0.98530
N636        N  0.33139006  0.73567168  0.61759943    -0.06770
N637        N  0.32392248  0.74362402  0.57760367    -0.62150
N638        N  0.35236194  0.74619294  0.72460408    -0.06090
N639        N  0.35813453  0.76431415  0.76319570    -0.58880
N640        N  0.38182561  0.76053710  0.69788163    -0.07400
N641        N  0.40834087  0.78880155  0.71814666    -0.61710
N642        N  0.30226000  0.72049371  0.64506600    -0.06390
N643        N  0.27450065  0.71836975  0.62429769    -0.58900
Mn644      Mn  0.38144638  0.73297553  0.63202172     1.20190
Mn645      Mn  0.30313201  0.69289031  0.71006641     1.10090
Cl646      Cl  0.34204448  0.66471825  0.67020174    -0.86870
C647        C  0.28860777  0.73298948  0.58218087     0.95460
C648        C  0.39298770  0.79105008  0.75899292     0.95260
N649        N  0.18290955  0.88095286  0.43079966    -0.07020
N650        N  0.16867927  0.87713600  0.47187643    -0.59140
N651        N  0.24194255  0.93775259  0.35346727    -0.06700
N652        N  0.26641007  0.96580643  0.37621300    -0.61270
N653        N  0.21180221  0.94152153  0.35832804    -0.06300
N654        N  0.21629803  0.97129787  0.38570653    -0.59120
N655        N  0.21253385  0.87679182  0.42933828    -0.05980
N656        N  0.21925132  0.86974081  0.46995109    -0.61620
C657        C  0.19141777  0.86982017  0.49534383     0.95150
C658        C  0.25003271  0.98549903  0.39799892     0.94930
N659        N  0.25205182  0.84242099  0.27693820    -0.07210
N660        N  0.26846545  0.84580999  0.23700564    -0.59720
N661        N  0.24037003  0.82077270  0.38473429    -0.05330
N662        N  0.24999520  0.81398368  0.42362997    -0.60970
N663        N  0.22505248  0.78708666  0.36337333    -0.07240
N664        N  0.22437639  0.75650638  0.38765876    -0.59990
N665        N  0.26605387  0.87663214  0.29750819    -0.04970
N666        N  0.29246968  0.90440483  0.27117399    -0.61060
Mn667      Mn  0.24135620  0.87850672  0.36511801     1.18440
C668        C  0.29362129  0.88421059  0.23356523     0.97230
C669        C  0.24013821  0.77416861  0.42532528     0.97900
N670        N  0.13643968  0.89009600  0.30915336    -0.07260
N671        N  0.13334004  0.91927223  0.28653392    -0.63570
N672        N  0.09645972  0.80074556  0.37661047    -0.06060
N673        N  0.07096468  0.77283369  0.40383055    -0.64240
N674        N  0.11034873  0.83531164  0.39648436    -0.06770
N675        N  0.09490234  0.83175491  0.43713879    -0.63830
N676        N  0.12024569  0.85568194  0.28954318    -0.05660
N677        N  0.10617497  0.86040108  0.25345043    -0.64520
Mn678      Mn  0.15999451  0.88778522  0.37208077     1.10660
C679        C  0.11442106  0.89977563  0.25158713     0.98460
C680        C  0.07037562  0.79296654  0.44171885     0.98530
N681        N  0.15070439  0.73687926  0.31353110    -0.06770
N682        N  0.14556853  0.70614850  0.28755716    -0.62150
N683        N  0.14860391  0.80193174  0.24426153    -0.06090
N684        N  0.14255418  0.81484007  0.20633308    -0.58880
N685        N  0.17882540  0.79896255  0.24014582    -0.07400
N686        N  0.19387445  0.80935598  0.19899362    -0.61710
N687        N  0.12045500  0.74008613  0.31999901    -0.06390
N688        N  0.09507007  0.71057387  0.29990445    -0.58900
Mn689      Mn  0.20219950  0.79043888  0.29949505     1.20190
Mn690      Mn  0.12044930  0.79883145  0.30887079     1.10090
Cl691      Cl  0.18107893  0.83894741  0.33635928    -0.86870
C692        C  0.11092212  0.69005193  0.27868419     0.95460
C693        C  0.17097233  0.81955497  0.17885248     0.95260
N694        N  0.19900447  0.78479252  0.86883233    -0.07020
N695        N  0.22552919  0.78288678  0.88891137    -0.59140
N696        N  0.12102911  0.74662252  0.81131328    -0.06700
N697        N  0.09587846  0.72032700  0.78734733    -0.61270
N698        N  0.15187430  0.76260645  0.78723479    -0.06300
N699        N  0.14844519  0.74769610  0.74707715    -0.59120
N700        N  0.16879342  0.76633300  0.89372407    -0.05980
N701        N  0.17415039  0.75123493  0.93111258    -0.61620
C702        C  0.20955102  0.76157660  0.92781561     0.95150
C703        C  0.11375347  0.72123689  0.74717959     0.94930
N704        N  0.06762528  0.81028705  0.87352821    -0.07210
N705        N  0.03995539  0.80744531  0.90014837    -0.59720
N706        N  0.12117423  0.80101298  0.94100105    -0.05330
N707        N  0.13177258  0.79249644  0.97812658    -0.60970
N708        N  0.12079933  0.83639263  0.94271821    -0.07240
N709        N  0.13147997  0.85269629  0.98139987    -0.59990
N710        N  0.06846539  0.77489648  0.87334827    -0.04970
N711        N  0.04143802  0.74885692  0.90019694    -0.61060
Mn712      Mn  0.11915658  0.77080629  0.87886579     1.18440
C713        C  0.02426063  0.76951389  0.91788344     0.97230
C714        C  0.13823993  0.82485219  0.00279412     0.97900
N715        N  0.19763681  0.84657278  0.74552136    -0.07260
N716        N  0.19335183  0.83320985  0.70469914    -0.63570
N717        N  0.24651773  0.90639794  0.81957549    -0.06060
N718        N  0.27652658  0.93494840  0.80037064    -0.64240
N719        N  0.24782442  0.87132899  0.81837752    -0.06770
N720        N  0.27890054  0.87654543  0.79866628    -0.63830
N721        N  0.19695838  0.88159469  0.74716374    -0.05660
N722        N  0.19230205  0.89317603  0.70774217    -0.64520
Mn723      Mn  0.19965225  0.81559936  0.80567534     1.10660
C724        C  0.18994354  0.86267317  0.68196995     0.98460
C725        C  0.29655226  0.91618328  0.78719047     0.98530
N726        N  0.16409629  0.92103555  0.89850756    -0.06770
N727        N  0.16928424  0.93702889  0.93837432    -0.62150
N728        N  0.14786567  0.91321676  0.79091646    -0.06090
N729        N  0.14427998  0.92366569  0.75011014    -0.58880
N730        N  0.11654445  0.89412342  0.81346859    -0.07400
N731        N  0.09086622  0.89077010  0.78705215    -0.61710
N732        N  0.19419305  0.93612765  0.87315681    -0.06390
N733        N  0.22039171  0.96261184  0.89507438    -0.58900
Mn734      Mn  0.11642973  0.86635841  0.88125783     1.20190
Mn735      Mn  0.19673867  0.91039716  0.80877051     1.10090
Cl736      Cl  0.15785572  0.84061064  0.84393637    -0.86870
C737        C  0.20442083  0.96305222  0.93586021     0.95460
C738        C  0.10893825  0.90988171  0.74732288     0.95260
N739        N  0.47478841  0.91415759  0.97087124    -0.07020
N740        N  0.44926377  0.88672301  0.94871424    -0.59140
N741        N  0.05119497  0.95078056  0.03081045    -0.06700
N742        N  0.07672254  0.95091612  0.05504579    -0.61270
N743        N  0.02001973  0.93312901  0.05387682    -0.06300
N744        N  0.02353255  0.92070487  0.09361206    -0.59120
N745        N  0.50539013  0.92872632  0.94645003    -0.05980
N746        N  0.50124348  0.91155332  0.90716413    -0.61620
C747        C  0.46620380  0.88521780  0.90887358     0.95150
C748        C  0.05866588  0.93149810  0.09418465     0.94930
N749        N  0.10392873  0.57130682  0.97752246    -0.07210
N750        N  0.13194409  0.59657509  0.95148143    -0.59720
N751        N  0.05349739  0.01373230  0.90653313    -0.05330
N752        N  0.54588669  0.99784215  0.86743102    -0.60970
N753        N  0.05273979  0.54887297  0.90725539    -0.07240
N754        N  0.04425246  0.55747306  0.86829029    -0.59990
N755        N  0.10337795  0.53521223  0.97768426    -0.04970
N756        N  0.13131031  0.53691557  0.95255946    -0.61060
Mn757      Mn  0.05390192  0.98138645  0.96628564     1.18440
C758        C  0.14842039  0.57480372  0.93488618     0.97230
C759        C  0.54017396  0.02523474  0.84409379     0.97900
N760        N  0.97257024  0.96618979  0.10130675    -0.07260
N761        N  0.97606312  0.95346902  0.14112042    -0.63570
N762        N  0.42433439  0.98204725  0.02957355    -0.06060
N763        N  0.39427630  0.97827000  0.05104931    -0.64240
N764        N  0.42389122  0.94619685  0.02644063    -0.06770
N765        N  0.39338530  0.91849681  0.04543471    -0.63830
N766        N  0.97389637  0.50225811  0.10317543    -0.05660
N767        N  0.97867098  0.51522350  0.14412245    -0.64520
Mn768      Mn  0.47225209  0.93872403  0.03718149     1.10660
C769        C  0.98012419  0.48462666  0.16703456     0.98460
C770        C  0.37525847  0.93864561  0.06162925     0.98530
N771        N  0.50604364  0.58443400  0.95483239    -0.06770
N772        N  0.50081736  0.59670550  0.91554023    -0.62150
N773        N  0.02167791  0.58682080  0.06294162    -0.06090
N774        N  0.02496293  0.60026721  0.10385740    -0.58880
N775        N  0.05285715  0.60177838  0.03964522    -0.07400
N776        N  0.07819269  0.62556299  0.06532982    -0.61710
N777        N  0.47570188  0.56723812  0.97972850    -0.06390
N778        N  0.44932028  0.56742022  0.95769410    -0.58900
Mn779      Mn  0.05457293  0.57828417  0.97071854     1.20190
Mn780      Mn  0.47352702  0.53545226  0.04316397     1.10090
Cl781      Cl  0.01366573  0.50856888  0.00418952    -0.86870
C782        C  0.46542468  0.58624124  0.91757726     0.95460
C783        C  0.06003892  0.62447335  0.10549729     0.95260
N784        N  0.98600149  0.53971608  0.41235171    -0.07020
N785        N  0.99986089  0.54312931  0.37080238    -0.59140
N786        N  0.43188878  0.54377807  0.49509898    -0.06700
N787        N  0.40661561  0.54883732  0.47570577    -0.61270
N788        N  0.46254254  0.57657228  0.48739725    -0.06300
N789        N  0.45764622  0.60278579  0.46174880    -0.59120
N790        N  0.45516648  0.00746534  0.41793702    -0.05980
N791        N  0.44737935  0.98827807  0.38034309    -0.61620
C792        C  0.97541792  0.01079129  0.35136731     0.95150
C793        C  0.42286169  0.58494762  0.45353675     0.94930
N794        N  0.42221468  0.93926537  0.57377844    -0.07210
N795        N  0.40866685  0.92946497  0.61552687    -0.59720
N796        N  0.42784134  0.92586629  0.46637192    -0.05330
N797        N  0.41405136  0.90791662  0.42985462    -0.60970
N798        N  0.44437779  0.90752189  0.48551534    -0.07240
N799        N  0.44194265  0.87619984  0.46168731    -0.59990
N800        N  0.40794926  0.95969531  0.55382140    -0.04970
N801        N  0.38398054  0.96384306  0.58210445    -0.61060
Mn802      Mn  0.42968107  0.98388913  0.48463555     1.18440
C803        C  0.38494417  0.94474324  0.62080038     0.97230
C804        C  0.42272319  0.87715594  0.42693783     0.97900
N805        N  0.03822215  0.59907234  0.53198722    -0.07260
N806        N  0.04061815  0.63076884  0.55497239    -0.63570
N807        N  0.07492497  0.54686510  0.46522360    -0.06060
N808        N  0.10070880  0.54503197  0.43829069    -0.64240
N809        N  0.06053612  0.56699765  0.44488432    -0.06770
N810        N  0.07592582  0.57924568  0.40430119    -0.63830
N811        N  0.05447272  0.58087349  0.55198103    -0.05660
N812        N  0.06810525  0.59933841  0.58839203    -0.64520
Mn813      Mn  0.01237918  0.57191070  0.47006893     1.10660
C814        C  0.05937357  0.63011626  0.59031223     0.98460
C815        C  0.10089575  0.56571354  0.40036222     0.98530
N816        N  0.02083358  0.92992220  0.53264040    -0.06770
N817        N  0.02529839  0.90461757  0.56037404    -0.62150
N818        N  0.02643774  0.49908899  0.59986790    -0.06090
N819        N  0.03478826  0.51684032  0.63806608    -0.58880
N820        N  0.49622491  0.96603470  0.60520153    -0.07400
N821        N  0.48335928  0.96010876  0.64731857    -0.61710
N822        N  0.05147969  0.96297841  0.52567374    -0.06390
N823        N  0.07622471  0.95884976  0.54764007    -0.58900
Mn824      Mn  0.47028676  0.93417264  0.54786979     1.20190
Mn825      Mn  0.05280102  0.52279145  0.53422301     1.10090
Cl826      Cl  0.99136349  0.50306717  0.50898899    -0.86870
C827        C  0.05969209  0.92304657  0.57042749     0.95460
C828        C  0.00767173  0.49223212  0.66687012     0.95260
C829        C  0.52538882  0.01660504  0.80086511    -0.06370
C830        C  0.01141215  0.97655700  0.78754741    -0.33800
C831        C  0.00210559  0.46737859  0.74414096     0.35450
C832        C  0.00681728  0.49863346  0.71402415    -0.06730
C833        C  0.51750886  0.53799258  0.72813150    -0.33700
C834        C  0.52656319  0.54714291  0.77187787     0.35360
H835        H  0.00934521  0.95251213  0.81008965     0.15730
O836        O  0.99296990  0.92906394  0.73006173    -0.61200
H837        H  0.52094214  0.56199731  0.70449133     0.15740
O838        O  0.53942209  0.58628541  0.78456832    -0.61290
H839        H  0.51790148  0.59040443  0.79215276     0.42740
H840        H  0.96702195  0.91380443  0.73853696     0.42690
C841        C  0.98470409  0.48562373  0.21455838    -0.06370
C842        C  0.45815767  0.95622160  0.24310273    -0.33800
C843        C  0.45576358  0.96303644  0.28863931     0.35450
C844        C  0.98024502  0.99972064  0.30545515    -0.06730
C845        C  0.00922801  0.52683785  0.27736155    -0.33700
C846        C  0.01149803  0.51988209  0.23192854     0.35360
H847        H  0.43767904  0.92952871  0.22963900     0.15730
O848        O  0.42827805  0.93469809  0.31565243    -0.61200
H849        H  0.02915306  0.55440791  0.28999858     0.15740
O850        O  0.03925356  0.54729443  0.20440542    -0.61290
H851        H  0.03038946  0.56618356  0.19343680     0.42740
H852        H  0.43844147  0.91764451  0.32837630     0.42690
C853        C  0.07212850  0.91589784  0.61454176    -0.06370
C854        C  0.04749695  0.89183369  0.64993719    -0.33800
C855        C  0.05833863  0.88941531  0.69343485     0.35450
C856        C  0.09433076  0.91176439  0.70287730    -0.06730
C857        C  0.11873040  0.93544271  0.66730394    -0.33700
C858        C  0.10810197  0.93773078  0.62415569     0.35360
H859        H  0.01946771  0.87543553  0.64427481     0.15730
O860        O  0.03346095  0.86532027  0.72627316    -0.61200
H861        H  0.14671126  0.95279821  0.67276800     0.15740
O862        O  0.13341979  0.96159723  0.59147592    -0.61290
H863        H  0.13791976  0.98959310  0.59810408     0.42740
H864        H  0.03251103  0.83825952  0.72275728     0.42690
C865        C  0.09851667  0.69897675  0.70632398    -0.06370
C866        C  0.06203143  0.68411314  0.69898656    -0.33800
C867        C  0.04873921  0.66436689  0.65915018     0.35450
C868        C  0.07206756  0.65948296  0.62611628    -0.06730
C869        C  0.10832316  0.67490210  0.63334668    -0.33700
C870        C  0.12158545  0.69419838  0.67266567     0.35360
H871        H  0.04382894  0.68745107  0.72423518     0.15730
O872        O  0.01275683  0.64756073  0.65438808    -0.61200
H873        H  0.12641151  0.67008888  0.60913450     0.15740
O874        O  0.15685364  0.70556489  0.67925370    -0.61290
H875        H  0.17071127  0.72885314  0.65809870     0.42740
H876        H  0.50959326  0.66581931  0.63265719     0.42690
C877        C  0.32258434  0.93045547  0.74714314    -0.06370
C878        C  0.35195066  0.92185198  0.74476490    -0.33800
C879        C  0.37313222  0.92790131  0.70444430     0.35450
C880        C  0.36476216  0.94219593  0.66481643    -0.06730
C881        C  0.33622487  0.95245593  0.66769439    -0.33700
C882        C  0.31512048  0.94652755  0.70824564     0.35360
H883        H  0.35798699  0.90933113  0.77408704     0.15730
O884        O  0.40207621  0.91974358  0.70440936    -0.61200
H885        H  0.32930982  0.96360895  0.63805822     0.15740
O886        O  0.28600105  0.95436989  0.70871727    -0.61290
H887        H  0.26724544  0.93067768  0.69533846     0.42740
H888        H  0.39221426  0.89005280  0.70280756     0.42690
C889        C  0.18810515  0.86718903  0.54288805    -0.06370
C890        C  0.17403663  0.82952402  0.56492376    -0.33800
C891        C  0.17280466  0.82719471  0.61126649     0.35450
C892        C  0.18590608  0.86301317  0.63474909    -0.06730
C893        C  0.19683772  0.90038532  0.61244245    -0.33700
C894        C  0.19758323  0.90248020  0.56633424     0.35360
H895        H  0.16402413  0.80221798  0.54632400     0.15730
O896        O  0.15919022  0.79018463  0.63310140    -0.61200
H897        H  0.20602443  0.92809023  0.63044774     0.15740
O898        O  0.20876340  0.93908401  0.54427822    -0.61290
H899        H  0.18686386  0.94279619  0.54206011     0.42740
H900        H  0.13358269  0.78282189  0.64070562     0.42690
C901        C  0.17402544  0.83079537  0.13197763    -0.06370
C902        C  0.18099436  0.80680867  0.10099710    -0.33800
C903        C  0.17123853  0.80636447  0.05759089     0.35450
C904        C  0.15482841  0.83061360  0.04508072    -0.06730
C905        C  0.15263158  0.85875499  0.07450722    -0.33700
C906        C  0.16186284  0.85862531  0.11832186     0.35360
H907        H  0.19073736  0.78561279  0.11141506     0.15730
O908        O  0.17635876  0.78071897  0.02843637    -0.61200
H909        H  0.14135211  0.87865869  0.06474335     0.15740
O910        O  0.15716309  0.88410019  0.14828979    -0.61290
H911        H  0.13099034  0.87277035  0.15537638     0.42740
H912        H  0.19902110  0.79791696  0.01072851     0.42690
C913        C  0.07414940  0.92601751  0.13534607    -0.06370
C914        C  0.10956510  0.95152113  0.14452420    -0.33800
C915        C  0.12292427  0.94646481  0.18500865     0.35450
C916        C  0.10057227  0.91583502  0.21660457    -0.06730
C917        C  0.06502544  0.89184986  0.20798680    -0.33700
C918        C  0.05192453  0.89620538  0.16790566     0.35360
H919        H  0.12679873  0.97512094  0.12035263     0.15730
O920        O  0.15785973  0.97061468  0.19261421    -0.61200
H921        H  0.04768708  0.86762094  0.23154246     0.15740
O922        O  0.01741872  0.87000832  0.16045815    -0.61290
H923        H  0.01913416  0.84739177  0.14459775     0.42740
H924        H  0.17069806  0.95402000  0.18627850     0.42690
C925        C  0.07497239  0.64245089  0.14877472    -0.06370
C926        C  0.05127195  0.64477702  0.18313187    -0.33800
C927        C  0.06196472  0.65689273  0.22622390     0.35450
C928        C  0.09765011  0.66897475  0.23609982    -0.06730
C929        C  0.12158935  0.66668705  0.20180965    -0.33700
C930        C  0.11040319  0.65318686  0.15877391     0.35360
H931        H  0.02368746  0.63621031  0.17693914     0.15730
O932        O  0.03720065  0.65757791  0.25822974    -0.61200
H933        H  0.14932249  0.67624294  0.20790932     0.15740
O934        O  0.13427999  0.65049763  0.12696574    -0.61290
H935        H  0.13342396  0.62367179  0.13270267     0.42740
H936        H  0.02701484  0.63079842  0.27407966     0.42690
C937        C  0.35097444  0.92398659  0.10357426    -0.06370
C938        C  0.34652999  0.88796483  0.12497525    -0.33800
C939        C  0.33003065  0.87658444  0.16833974     0.35450
C940        C  0.31662932  0.90066812  0.19146130    -0.06730
C941        C  0.32035746  0.93639799  0.17030050    -0.33700
C942        C  0.33744470  0.94820368  0.12672610     0.35360
H943        H  0.35697279  0.86890087  0.10872992     0.15730
O944        O  0.32707559  0.84152417  0.18795902    -0.61200
H945        H  0.30913502  0.95457402  0.18696895     0.15740
O946        O  0.34013964  0.98300074  0.10680312    -0.61290
H947        H  0.35967051  0.00517683  0.12113590     0.42740
H948        H  0.34841759  0.84968872  0.20533817     0.42690
C949        C  0.41257669  0.59064315  0.79853670    -0.06370
C950        C  0.39265262  0.56843270  0.83754567    -0.33800
C951        C  0.40912657  0.56750226  0.87671841     0.35450
C952        C  0.44651221  0.58901327  0.87783088    -0.06730
C953        C  0.46644647  0.61160185  0.83898735    -0.33700
C954        C  0.44994053  0.61231815  0.79965031     0.35360
H955        H  0.36393572  0.55134114  0.83773443     0.15730
O956        O  0.38824972  0.54531102  0.91360527    -0.61200
H957        H  0.49513945  0.62883823  0.83898739     0.15740
O958        O  0.47058792  0.63523378  0.76303990    -0.61290
H959        H  0.47909099  0.61757214  0.74653579     0.42740
H960        H  0.38508802  0.51746296  0.90898276     0.42690
C961        C  0.16720908  0.58314051  0.88851969    -0.06370
C962        C  0.17329988  0.55268363  0.86703173    -0.33800
C963        C  0.18517991  0.55640909  0.82120815     0.35450
C964        C  0.19135373  0.59119605  0.79510063    -0.06730
C965        C  0.18546211  0.62172787  0.81666865    -0.33700
C966        C  0.17362092  0.61802919  0.86247756     0.35360
H967        H  0.16814425  0.52519955  0.88559913     0.15730
O968        O  0.19038408  0.52554145  0.80237227    -0.61200
H969        H  0.19059894  0.64920020  0.79810980     0.15740
O970        O  0.16853772  0.64896855  0.88133114    -0.61290
H971        H  0.14519083  0.64574071  0.87183162     0.42740
H972        H  0.21371346  0.52881333  0.81198691     0.42690
C973        C  0.44804687  0.86094633  0.87029774    -0.06370
C974        C  0.41075234  0.84468546  0.87012806    -0.33800
C975        C  0.39279054  0.82266489  0.83398715     0.35450
C976        C  0.41199024  0.81637482  0.79651963    -0.06730
C977        C  0.44933933  0.83270651  0.79654696    -0.33700
C978        C  0.46735122  0.85468989  0.83291801     0.35360
H979        H  0.39526727  0.84933933  0.89804185     0.15730
O980        O  0.35641156  0.80844866  0.83518298    -0.61200
H981        H  0.46464096  0.82770532  0.76870106     0.15740
O982        O  0.50362466  0.86819054  0.83253901    -0.61290
H983        H  0.51412821  0.89028734  0.80924371     0.42740
H984        H  0.34652939  0.78429587  0.85578651     0.42690
C985        C  0.27493456  0.52634675  0.53387607    -0.06370
C986        C  0.28508260  0.49806220  0.51516743    -0.33800
C987        C  0.27694107  0.98451610  0.47155155     0.35450
C988        C  0.25950982  0.00073329  0.44431214    -0.06730
C989        C  0.24815378  0.02812613  0.46375371    -0.33700
C990        C  0.25572517  0.54090543  0.50805239     0.35360
H991        H  0.29972779  0.48643967  0.53458140     0.15730
O992        O  0.28410103  0.95352243  0.45680747    -0.61200
H993        H  0.23392857  0.04022163  0.44426862     0.15740
O994        O  0.24646778  0.56973959  0.52451578    -0.61290
H995        H  0.22276369  0.55452899  0.54102195     0.42740
H996        H  0.30891932  0.96024312  0.46359186     0.42690
C997        C  0.04816776  0.77605347  0.48479067    -0.06370
C998        C  0.04739525  0.80318264  0.51722924    -0.33800
C999        C  0.52705335  0.78969958  0.55829069     0.35450
C1000       C  0.50717550  0.74824897  0.56860462    -0.06730
C1001       C  0.50908524  0.72084816  0.53708987    -0.33700
C1002       C  0.02902486  0.73443231  0.49534098     0.35360
H1003       H  0.06211621  0.83538662  0.51052181     0.15730
O1004       O  0.52651667  0.81748900  0.58802626    -0.61200
H1005       H  0.49381471  0.68872088  0.54386804     0.15740
O1006       O  0.02979409  0.70678787  0.46549061    -0.61290
H1007       H  0.00801900  0.69890334  0.44904614     0.42740
H1008       H  0.50840327  0.82547156  0.57782276     0.42690
C1009       C  0.26829392  0.73452206  0.54424455    -0.06370
C1010       C  0.24870308  0.75678688  0.54734745    -0.33800
C1011       C  0.23651608  0.76656678  0.50877003     0.35450
C1012       C  0.24374776  0.75398502  0.46626779    -0.06730
C1013       C  0.26012522  0.72818537  0.46390922    -0.33700
C1014       C  0.27225202  0.71832171  0.50277772     0.35360
H1015       H  0.24497219  0.76895707  0.57910097     0.15730
O1016       O  0.21939424  0.79064059  0.51257880    -0.61200
H1017       H  0.26565718  0.71793917  0.43173317     0.15740
O1018       O  0.28925123  0.69411535  0.49975987    -0.61290
H1019       H  0.27000611  0.66622550  0.50433526     0.42740
H1020       H  0.19472758  0.77342693  0.50455387     0.42690
C1021       C  0.31760387  0.65190068  0.88380406    -0.06370
C1022       C  0.32531133  0.68931852  0.90225596    -0.33800
C1023       C  0.33749992  0.69764410  0.94475727     0.35450
C1024       C  0.34212470  0.66814843  0.96960902    -0.06730
C1025       C  0.33297696  0.63006793  0.95199646    -0.33700
C1026       C  0.32071698  0.62177838  0.90928298     0.35360
H1027       H  0.32282187  0.71283986  0.88331468     0.15730
O1028       O  0.34578412  0.73511806  0.96089903    -0.61200
H1029       H  0.33547744  0.60665399  0.97116470     0.15740
O1030       O  0.31175958  0.58427358  0.89295988    -0.61290
H1031       H  0.33481181  0.58399753  0.88365460     0.42740
H1032       H  0.32273232  0.73382094  0.97341171     0.42690
C1033       C  0.35117893  0.67343922  0.46192662    -0.06370
C1034       C  0.35148677  0.70631595  0.43811448    -0.33800
C1035       C  0.33282869  0.70051288  0.39978905     0.35450
C1036       C  0.31381999  0.66142439  0.38437930    -0.06730
C1037       C  0.31381938  0.62858456  0.40800501    -0.33700
C1038       C  0.33231626  0.63430672  0.44638806     0.35360
H1039       H  0.36574687  0.73662925  0.44963382     0.15730
O1040       O  0.33427118  0.73342024  0.37708368    -0.61200
H1041       H  0.29959963  0.59824432  0.39654040     0.15740
O1042       O  0.33031262  0.60117159  0.46937110    -0.61290
H1043       H  0.35413601  0.60186463  0.46370483     0.42740
H1044       H  0.35496872  0.74117950  0.35469473     0.42690
C1045       C  0.38864716  0.59667705  0.32206473    -0.06370
C1046       C  0.36529693  0.56842400  0.35493873    -0.33800
C1047       C  0.37566708  0.56558980  0.39775667     0.35450
C1048       C  0.40996409  0.59213092  0.41009759    -0.06730
C1049       C  0.43349636  0.62103604  0.37733616    -0.33700
C1050       C  0.42312320  0.62331480  0.33364461     0.35360
H1051       H  0.33852364  0.54759287  0.34733619     0.15730
O1052       O  0.35188350  0.53596178  0.42712311    -0.61200
H1053       H  0.46035214  0.64128500  0.38514412     0.15740
O1054       O  0.44679376  0.65166406  0.30286660    -0.61290
H1055       H  0.44274313  0.67589053  0.30721740     0.42740
H1056       H  0.35342103  0.51110197  0.41772134     0.42690
C1057       C  0.12399170  0.57291183  0.35838278    -0.06370
C1058       C  0.13075276  0.54228165  0.33918362    -0.33800
C1059       C  0.14907920  0.54839720  0.29641336     0.35450
C1060       C  0.16132140  0.58581515  0.27245338    -0.06730
C1061       C  0.15370274  0.61586534  0.29181372    -0.33700
C1062       C  0.13572395  0.60985571  0.33427115     0.35360
H1063       H  0.12117598  0.51334494  0.35684909     0.15730
O1064       O  0.15548091  0.51789251  0.27890598    -0.61200
H1065       H  0.16323876  0.64507496  0.27494884     0.15740
O1066       O  0.13033305  0.64080802  0.35253301    -0.61290
H1067       H  0.15177395  0.65634022  0.36898388     0.42740
H1068       H  0.13329386  0.50027618  0.26490053     0.42690
C1069       C  0.41068618  0.84919674  0.38960868    -0.06370
C1070       C  0.43491932  0.84320606  0.35913663    -0.33800
C1071       C  0.42410735  0.82554843  0.31743909     0.35450
C1072       C  0.38869836  0.81362219  0.30610723    -0.06730
C1073       C  0.36487648  0.81955246  0.33706803    -0.33700
C1074       C  0.37536953  0.83660703  0.37820995     0.35360
H1075       H  0.46250800  0.85389332  0.36666742     0.15730
O1076       O  0.44806027  0.81957836  0.28862779    -0.61200
H1077       H  0.33741558  0.81037775  0.32971015     0.15740
O1078       O  0.35067677  0.84099242  0.40744210    -0.61290
H1079       H  0.34711957  0.86355699  0.39448396     0.42740
H1080       H  0.46042605  0.84490255  0.27001744     0.42690
C1081       C  0.22354903  0.98407914  0.97517600    -0.06370
C1082       C  0.20378919  0.48409849  0.01510167    -0.33800
C1083       C  0.22082387  0.50187436  0.05358896     0.35450
C1084       C  0.25843725  0.52052195  0.05272575    -0.06730
C1085       C  0.27817686  0.02040535  0.01280523    -0.33700
C1086       C  0.26115737  0.00224842  0.97448866     0.35360
H1087       H  0.17487307  0.47012439  0.01668944     0.15730
O1088       O  0.20033280  0.50150021  0.09148194    -0.61200
H1089       H  0.30708762  0.03438321  0.01116374     0.15740
O1090       O  0.28168993  0.00227166  0.93674844    -0.61290
H1091       H  0.28623482  0.97839638  0.94087915     0.42740
H1092       H  0.19258898  0.47454828  0.10611672     0.42690
C1093       C  0.48008841  0.74336631  0.05758598    -0.06370
C1094       C  0.98843321  0.78075877  0.03611156    -0.33800
C1095       C  0.00071708  0.78884564  0.99041436     0.35450
C1096       C  0.00558472  0.75950397  0.96442643    -0.06730
C1097       C  0.49739593  0.72214351  0.98592387    -0.33700
C1098       C  0.48494041  0.71399900  0.03165086     0.35360
H1099       H  0.98474593  0.80387842  0.05463524     0.15730
O1100       O  0.00872601  0.82615378  0.97202959    -0.61200
H1101       H  0.50118136  0.69910214  0.96736328     0.15740
O1102       O  0.47673560  0.67667058  0.05011670    -0.61290
H1103       H  0.49927043  0.67903945  0.06150780     0.42740
H1104       H  0.98624821  0.82351231  0.96019642     0.42690
C1105       C  0.26052232  0.74526514  0.04260062    -0.06370
C1106       C  0.27897081  0.77823963  0.01211357    -0.33800
C1107       C  0.26328100  0.78328359  0.97386770     0.35450
C1108       C  0.22850360  0.75494875  0.96521481    -0.06730
C1109       C  0.21033424  0.72158031  0.99528688    -0.33700
C1110       C  0.22604839  0.71658803  0.03350568     0.35360
H1111       H  0.30554041  0.80064017  0.01834890     0.15730
O1112       O  0.28135939  0.81730025  0.94675790    -0.61200
H1113       H  0.18366080  0.69931504  0.98926086     0.15740
O1114       O  0.20795747  0.68272895  0.06076060    -0.61290
H1115       H  0.19565565  0.69101420  0.08511108     0.42740
H1116       H  0.29748864  0.81105933  0.92583795     0.42690
N1117       N  0.86534699  0.16531401  0.07944638    -0.07020
N1118       N  0.85876900  0.14836966  0.04040644    -0.59140
N1119       N  0.91696208  0.22958796  0.14750703    -0.06700
N1120       N  0.94446882  0.25504020  0.12094403    -0.61270
N1121       N  0.91725292  0.19392422  0.14852262    -0.06300
N1122       N  0.94472911  0.19581416  0.12209185    -0.59120
N1123       N  0.86523315  0.20076083  0.07764190    -0.05980
N1124       N  0.85860218  0.20868639  0.03736860    -0.61620
C1125       C  0.85477244  0.17587358  0.01454459     0.95150
C1126       C  0.96114163  0.23365224  0.10396793     0.94930
N1127       N  0.83457065  0.24826267  0.22736456    -0.07210
N1128       N  0.83837668  0.26534004  0.26630992    -0.59720
N1129       N  0.81834532  0.23826033  0.12012828    -0.05330
N1130       N  0.81365719  0.25024898  0.08041981    -0.60970
N1131       N  0.78793965  0.22197468  0.14501450    -0.07240
N1132       N  0.76186133  0.22230334  0.12237186    -0.59990
N1133       N  0.86543462  0.26212771  0.20339410    -0.04970
N1134       N  0.89105468  0.28889465  0.22642818    -0.61060
Mn1135     Mn  0.86702818  0.23406443  0.13808893     1.18440
C1136       C  0.87340640  0.29065114  0.26574342     0.97230
C1137       C  0.77844211  0.24031129  0.08205325     0.97900
N1138       N  0.86610042  0.11321732  0.21237147    -0.07260
N1139       N  0.89177731  0.11610859  0.23833362    -0.63570
N1140       N  0.78857247  0.07061949  0.15364367    -0.06060
N1141       N  0.76194370  0.04432203  0.13207787    -0.64240
N1142       N  0.81872936  0.08383861  0.12843081    -0.06770
N1143       N  0.81311677  0.06670353  0.08921903    -0.63830
N1144       N  0.83491891  0.09629496  0.23569441    -0.05660
N1145       N  0.83856511  0.08688083  0.27683932    -0.64520
Mn1146     Mn  0.86750657  0.13809360  0.14329199     1.10660
C1147       C  0.87379635  0.09906991  0.27862887     0.98460
C1148       C  0.77770691  0.04195363  0.09182783     0.98530
N1149       N  0.73748982  0.13941056  0.20087669    -0.06770
N1150       N  0.70652453  0.13622530  0.21841623    -0.62150
N1151       N  0.78618918  0.13061090  0.27758143    -0.06090
N1152       N  0.79263785  0.12173455  0.31756683    -0.58880
N1153       N  0.78704293  0.16647903  0.27636139    -0.07400
N1154       N  0.79452075  0.18294897  0.31571978    -0.61710
N1155       N  0.73757733  0.10379907  0.20299579    -0.06390
N1156       N  0.70683579  0.07682682  0.22239539    -0.58900
Mn1157     Mn  0.78620687  0.19482032  0.21182585     1.20190
Mn1158     Mn  0.78640235  0.09910362  0.21671549     1.10090
Cl1159     Cl  0.82701997  0.16670900  0.17751367    -0.87290
C1160       C  0.68765159  0.09727390  0.23249883     0.95460
C1161       C  0.79771688  0.15448598  0.34112584     0.95260
N1162       N  0.80183609  0.07072695  0.63971017    -0.07020
N1163       N  0.77520626  0.04670722  0.61587277    -0.59140
N1164       N  0.88140256  0.10814157  0.69575179    -0.06700
N1165       N  0.90850612  0.10954459  0.71761022    -0.61270
N1166       N  0.85161187  0.09162758  0.72183855    -0.06300
N1167       N  0.85784363  0.08136562  0.76152348    -0.59120
N1168       N  0.83222054  0.08436785  0.61466494    -0.05980
N1169       N  0.82709983  0.06968708  0.57429599    -0.61620
C1170       C  0.79173951  0.04627541  0.57507477     0.95150
C1171       C  0.89327395  0.09235129  0.75874607     0.94930
N1172       N  0.93098697  0.22702652  0.64083754    -0.07210
N1173       N  0.96151296  0.25429116  0.62127325    -0.59720
N1174       N  0.87893588  0.16695081  0.56865857    -0.05330
N1175       N  0.87133914  0.15151886  0.52897506    -0.60970
N1176       N  0.87917967  0.20253492  0.56928024    -0.07240
N1177       N  0.87190942  0.21211301  0.53002550    -0.59990
N1178       N  0.93076325  0.19119185  0.63998556    -0.04970
N1179       N  0.96094070  0.19436280  0.61949957    -0.61060
Mn1180     Mn  0.88131797  0.13669392  0.63050663     1.18440
C1181       C  0.98003701  0.23375769  0.60779651     0.97230
C1182       C  0.86718331  0.18006385  0.50517112     0.97900
N1183       N  0.80540566  0.12715090  0.77102016    -0.07260
N1184       N  0.80799822  0.11583459  0.81195970    -0.63570
N1185       N  0.75291520  0.13832236  0.70314858    -0.06060
N1186       N  0.72586591  0.13695180  0.72991906    -0.64240
N1187       N  0.75245264  0.10228248  0.70327859    -0.06770
N1188       N  0.72533369  0.07731604  0.73077011    -0.63830
N1189       N  0.80560715  0.16275537  0.77104245    -0.05660
N1190       N  0.80811347  0.17638883  0.81166246    -0.64520
Mn1191     Mn  0.80237637  0.09635238  0.70787051     1.10660
C1192       C  0.80951200  0.14690091  0.83683181     0.98460
C1193       C  0.70934108  0.09926365  0.74827880     0.98530
N1194       N  0.83139006  0.23567168  0.61759944    -0.06770
N1195       N  0.82392248  0.24362402  0.57760367    -0.62150
N1196       N  0.85236194  0.24619294  0.72460409    -0.06090
N1197       N  0.85813454  0.26431415  0.76319570    -0.58880
N1198       N  0.88182561  0.26053710  0.69788163    -0.07400
N1199       N  0.90834087  0.28880155  0.71814666    -0.61710
N1200       N  0.80226001  0.22049371  0.64506601    -0.06390
N1201       N  0.77450066  0.21836975  0.62429769    -0.58900
Mn1202     Mn  0.88144639  0.23297553  0.63202172     1.20190
Mn1203     Mn  0.80313202  0.19289032  0.71006642     1.10090
Cl1204     Cl  0.84204448  0.16471825  0.67020175    -0.86870
C1205       C  0.78860777  0.23298948  0.58218088     0.95460
C1206       C  0.89298770  0.29105008  0.75899293     0.95260
N1207       N  0.68290955  0.38095287  0.43079967    -0.07020
N1208       N  0.66867927  0.37713601  0.47187643    -0.59140
N1209       N  0.74194256  0.43775259  0.35346729    -0.06700
N1210       N  0.76641009  0.46580644  0.37621301    -0.61270
N1211       N  0.71180223  0.44152154  0.35832804    -0.06300
N1212       N  0.71629804  0.47129788  0.38570653    -0.59120
N1213       N  0.71253385  0.37679183  0.42933830    -0.05980
N1214       N  0.71925132  0.36974081  0.46995110    -0.61620
C1215       C  0.69141776  0.36982017  0.49534384     0.95150
C1216       C  0.75003272  0.48549904  0.39799893     0.94930
N1217       N  0.75205184  0.34242100  0.27693822    -0.07210
N1218       N  0.76846547  0.34580999  0.23700566    -0.59720
N1219       N  0.74037003  0.32077270  0.38473431    -0.05330
N1220       N  0.74999520  0.31398368  0.42362999    -0.60970
N1221       N  0.72505249  0.28708666  0.36337335    -0.07240
N1222       N  0.72437639  0.25650638  0.38765877    -0.59990
N1223       N  0.76605389  0.37663215  0.29750822    -0.04970
N1224       N  0.79246970  0.40440484  0.27117401    -0.61060
Mn1225     Mn  0.74135621  0.37850672  0.36511802     1.18440
C1226       C  0.79362131  0.38421060  0.23356525     0.97230
C1227       C  0.74013821  0.27416861  0.42532530     0.97900
N1228       N  0.63643970  0.39009602  0.30915336    -0.07260
N1229       N  0.63334006  0.41927226  0.28653393    -0.63570
N1230       N  0.59645973  0.30074559  0.37661046    -0.06060
N1231       N  0.57096469  0.27283371  0.40383053    -0.64240
N1232       N  0.61034874  0.33531166  0.39648436    -0.06770
N1233       N  0.59490234  0.33175493  0.43713879    -0.63830
N1234       N  0.62024571  0.35568197  0.28954318    -0.05660
N1235       N  0.60617499  0.36040111  0.25345043    -0.64520
Mn1236     Mn  0.65999453  0.38778524  0.37208078     1.10660
C1237       C  0.61442108  0.39977567  0.25158714     0.98460
C1238       C  0.57037562  0.29296655  0.44171884     0.98530
N1239       N  0.65070439  0.23687927  0.31353110    -0.06770
N1240       N  0.64556854  0.20614852  0.28755716    -0.62150
N1241       N  0.64860395  0.30193178  0.24426154    -0.06090
N1242       N  0.64255423  0.31484013  0.20633308    -0.58880
N1243       N  0.67882542  0.29896257  0.24014584    -0.07400
N1244       N  0.69387449  0.30935600  0.19899364    -0.61710
N1245       N  0.62045501  0.24008615  0.31999900    -0.06390
N1246       N  0.59507008  0.21057390  0.29990443    -0.58900
Mn1247     Mn  0.70219951  0.29043889  0.29949506     1.20190
Mn1248     Mn  0.62044932  0.29883148  0.30887079     1.10090
Cl1249     Cl  0.68107894  0.33894743  0.33635929    -0.86870
C1250       C  0.61092213  0.19005195  0.27868418     0.95460
C1251       C  0.67097238  0.31955502  0.17885249     0.95260
N1252       N  0.69900446  0.28479251  0.86883234    -0.07020
N1253       N  0.72552918  0.28288680  0.88891138    -0.59140
N1254       N  0.62102911  0.24662252  0.81131327    -0.06700
N1255       N  0.59587846  0.22032700  0.78734732    -0.61270
N1256       N  0.65187430  0.26260645  0.78723478    -0.06300
N1257       N  0.64844519  0.24769610  0.74707715    -0.59120
N1258       N  0.66879341  0.26633298  0.89372407    -0.05980
N1259       N  0.67415037  0.25123491  0.93111258    -0.61620
C1260       C  0.70955101  0.26157661  0.92781562     0.95150
C1261       C  0.61375347  0.22123689  0.74717958     0.94930
N1262       N  0.56762526  0.31028704  0.87352821    -0.07210
N1263       N  0.53995538  0.30744530  0.90014838    -0.59720
N1264       N  0.62117418  0.30101293  0.94100105    -0.05330
N1265       N  0.63177247  0.29249633  0.97812658    -0.60970
N1266       N  0.62079930  0.33639259  0.94271822    -0.07240
N1267       N  0.63147991  0.35269620  0.98139991    -0.59990
N1268       N  0.56846537  0.27489647  0.87334826    -0.04970
N1269       N  0.54143800  0.24885691  0.90019692    -0.61060
Mn1270     Mn  0.61915656  0.27080627  0.87886577     1.18440
C1271       C  0.52426062  0.26951388  0.91788344     0.97230
C1272       C  0.63823982  0.32485206  0.00279416     0.97900
N1273       N  0.69763680  0.34657278  0.74552136    -0.07260
N1274       N  0.69335184  0.33320986  0.70469914    -0.63570
N1275       N  0.74651772  0.40639794  0.81957551    -0.06060
N1276       N  0.77652657  0.43494840  0.80037065    -0.64240
N1277       N  0.74782442  0.37132899  0.81837754    -0.06770
N1278       N  0.77890053  0.37654543  0.79866629    -0.63830
N1279       N  0.69695837  0.38159469  0.74716375    -0.05660
N1280       N  0.69230205  0.39317603  0.70774218    -0.64520
Mn1281     Mn  0.69965224  0.31559936  0.80567535     1.10660
C1282       C  0.68994354  0.36267317  0.68196996     0.98460
C1283       C  0.79655225  0.41618328  0.78719048     0.98530
N1284       N  0.66409628  0.42103553  0.89850758    -0.06770
N1285       N  0.66928423  0.43702886  0.93837434    -0.62150
N1286       N  0.64786566  0.41321676  0.79091647    -0.06090
N1287       N  0.64427997  0.42366569  0.75011015    -0.58880
N1288       N  0.61654444  0.39412341  0.81346861    -0.07400
N1289       N  0.59086621  0.39077009  0.78705217    -0.61710
N1290       N  0.69419304  0.43612763  0.87315682    -0.06390
N1291       N  0.72039169  0.46261183  0.89507440    -0.58900
Mn1292     Mn  0.61642972  0.36635839  0.88125785     1.20190
Mn1293     Mn  0.69673866  0.41039715  0.80877052     1.10090
Cl1294     Cl  0.65785571  0.34061062  0.84393638    -0.86870
C1295       C  0.70442082  0.46305220  0.93586023     0.95460
C1296       C  0.60893824  0.40988170  0.74732289     0.95260
N1297       N  0.97478842  0.41415758  0.97087125    -0.07020
N1298       N  0.94926378  0.38672302  0.94871424    -0.59140
N1299       N  0.55119497  0.45078056  0.03081046    -0.06700
N1300       N  0.57672254  0.45091613  0.05504581    -0.61270
N1301       N  0.52001973  0.43312901  0.05387683    -0.06300
N1302       N  0.52353254  0.42070487  0.09361208    -0.59120
N1303       N  0.00539013  0.42872631  0.94645005    -0.05980
N1304       N  0.00124348  0.41155332  0.90716414    -0.61620
C1305       C  0.96620380  0.38521780  0.90887359     0.95150
C1306       C  0.55866588  0.43149811  0.09418468     0.94930
N1307       N  0.60392873  0.07130683  0.97752244    -0.07210
N1308       N  0.63194409  0.09657510  0.95148142    -0.59720
N1309       N  0.55349744  0.51373230  0.90653315    -0.05330
N1310       N  0.04588679  0.49784216  0.86743104    -0.60970
N1311       N  0.55273978  0.04887298  0.90725538    -0.07240
N1312       N  0.54425240  0.05747306  0.86829031    -0.59990
N1313       N  0.60337794  0.03521223  0.97768423    -0.04970
N1314       N  0.63131030  0.03691557  0.95255944    -0.61060
Mn1315     Mn  0.55390193  0.48138645  0.96628566     1.18440
C1316       C  0.64842039  0.07480372  0.93488616     0.97230
C1317       C  0.04017408  0.52523475  0.84409377     0.97900
N1318       N  0.47257024  0.46618980  0.10130674    -0.07260
N1319       N  0.47606312  0.45346902  0.14112041    -0.63570
N1320       N  0.92433438  0.48204724  0.02957355    -0.06060
N1321       N  0.89427629  0.47826999  0.05104931    -0.64240
N1322       N  0.92389121  0.44619684  0.02644063    -0.06770
N1323       N  0.89338529  0.41849680  0.04543472    -0.63830
N1324       N  0.47389639  0.00225812  0.10317543    -0.05660
N1325       N  0.47867100  0.01522352  0.14412245    -0.64520
Mn1326     Mn  0.97225208  0.43872402  0.03718150     1.10660
C1327       C  0.48012421  0.98462668  0.16703455     0.98460
C1328       C  0.87525846  0.43864560  0.06162926     0.98530
N1329       N  0.00604363  0.08443400  0.95483241    -0.06770
N1330       N  0.00081735  0.09670549  0.91554025    -0.62150
N1331       N  0.52167793  0.08682082  0.06294161    -0.06090
N1332       N  0.52496295  0.10026723  0.10385738    -0.58880
N1333       N  0.55285716  0.10177840  0.03964521    -0.07400
N1334       N  0.57819271  0.12556301  0.06532980    -0.61710
N1335       N  0.97570187  0.06723811  0.97972851    -0.06390
N1336       N  0.94932026  0.06742019  0.95769410    -0.58900
Mn1337     Mn  0.55457294  0.07828418  0.97071853     1.20190
Mn1338     Mn  0.97352700  0.03545225  0.04316398     1.10090
Cl1339     Cl  0.51366574  0.00856889  0.00418951    -0.86870
C1340       C  0.96542466  0.08624122  0.91757726     0.95460
C1341       C  0.56003894  0.12447338  0.10549727     0.95260
N1342       N  0.48600150  0.03971607  0.41235172    -0.07020
N1343       N  0.49986091  0.04312931  0.37080239    -0.59140
N1344       N  0.93188879  0.04377807  0.49509899    -0.06700
N1345       N  0.90661562  0.04883732  0.47570578    -0.61270
N1346       N  0.96254255  0.07657228  0.48739726    -0.06300
N1347       N  0.95764623  0.10278579  0.46174881    -0.59120
N1348       N  0.95516646  0.50746535  0.41793702    -0.05980
N1349       N  0.94737933  0.48827808  0.38034310    -0.61620
C1350       C  0.47541790  0.51079129  0.35136730     0.95150
C1351       C  0.92286170  0.08494762  0.45353676     0.94930
N1352       N  0.92221467  0.43926539  0.57377844    -0.07210
N1353       N  0.90866685  0.42946499  0.61552687    -0.59720
N1354       N  0.92784132  0.42586630  0.46637192    -0.05330
N1355       N  0.91405135  0.40791663  0.42985462    -0.60970
N1356       N  0.94437777  0.40752191  0.48551535    -0.07240
N1357       N  0.94194264  0.37619985  0.46168731    -0.59990
N1358       N  0.90794925  0.45969534  0.55382141    -0.04970
N1359       N  0.88398053  0.46384308  0.58210446    -0.61060
Mn1360     Mn  0.92968106  0.48388915  0.48463555     1.18440
C1361       C  0.88494417  0.44474326  0.62080039     0.97230
C1362       C  0.92272318  0.37715596  0.42693784     0.97900
N1363       N  0.53822215  0.09907231  0.53198724    -0.07260
N1364       N  0.54061816  0.13076882  0.55497240    -0.63570
N1365       N  0.57492498  0.04686508  0.46522362    -0.06060
N1366       N  0.60070880  0.04503196  0.43829071    -0.64240
N1367       N  0.56053612  0.06699764  0.44488434    -0.06770
N1368       N  0.57592583  0.07924567  0.40430122    -0.63830
N1369       N  0.55447272  0.08087347  0.55198106    -0.05660
N1370       N  0.56810525  0.09933838  0.58839206    -0.64520
Mn1371     Mn  0.51237918  0.07191068  0.47006895     1.10660
C1372       C  0.55937357  0.13011624  0.59031225     0.98460
C1373       C  0.60089576  0.06571353  0.40036224     0.98530
N1374       N  0.52083357  0.42992220  0.53264040    -0.06770
N1375       N  0.52529838  0.40461758  0.56037405    -0.62150
N1376       N  0.52643774  0.99908896  0.59986792    -0.06090
N1377       N  0.53478826  0.01684028  0.63806610    -0.58880
N1378       N  0.99622491  0.46603474  0.60520152    -0.07400
N1379       N  0.98335929  0.46010880  0.64731856    -0.61710
N1380       N  0.55147968  0.46297842  0.52567374    -0.06390
N1381       N  0.57622470  0.45884977  0.54764008    -0.58900
Mn1382     Mn  0.97028675  0.43417267  0.54786978     1.20190
Mn1383     Mn  0.55280103  0.02279143  0.53422302     1.10090
Cl1384     Cl  0.49136350  0.00306715  0.50898900    -0.86870
C1385       C  0.55969208  0.42304658  0.57042750     0.95460
C1386       C  0.50767172  0.99223208  0.66687015     0.95260
C1387       C  0.02538899  0.51660503  0.80086506    -0.06370
C1388       C  0.51141255  0.47655702  0.78754725    -0.33800
C1389       C  0.50210527  0.96737857  0.74414107     0.35450
C1390       C  0.50681722  0.99863347  0.71402417    -0.06730
C1391       C  0.01750900  0.03799267  0.72813144    -0.33700
C1392       C  0.02656327  0.04714299  0.77187783     0.35360
H1393       H  0.50934582  0.45251218  0.81008940     0.15730
O1394       O  0.49297044  0.42906401  0.73006151    -0.61200
H1395       H  0.02094248  0.06199743  0.70449120     0.15740
O1396       O  0.03942240  0.08628553  0.78456820    -0.61290
H1397       H  0.01790191  0.09040488  0.79215226     0.42740
H1398       H  0.46702250  0.41380435  0.73853670     0.42690
C1399       C  0.48470411  0.98562375  0.21455837    -0.06370
C1400       C  0.95815763  0.45622159  0.24310273    -0.33800
C1401       C  0.95576354  0.46303644  0.28863931     0.35450
C1402       C  0.48024500  0.49972063  0.30545515    -0.06730
C1403       C  0.50922802  0.02683788  0.27736154    -0.33700
C1404       C  0.51149804  0.01988212  0.23192853     0.35360
H1405       H  0.93767899  0.42952872  0.22963901     0.15730
O1406       O  0.92827799  0.43469812  0.31565243    -0.61200
H1407       H  0.52915306  0.05440795  0.28999858     0.15740
O1408       O  0.53925356  0.04729449  0.20440541    -0.61290
H1409       H  0.53038944  0.06618360  0.19343680     0.42740
H1410       H  0.93844137  0.41764450  0.32837628     0.42690
C1411       C  0.57212850  0.41589785  0.61454177    -0.06370
C1412       C  0.54749695  0.39183368  0.64993719    -0.33800
C1413       C  0.55833863  0.38941529  0.69343485     0.35450
C1414       C  0.59433075  0.41176438  0.70287731    -0.06730
C1415       C  0.61873039  0.43544272  0.66730396    -0.33700
C1416       C  0.60810196  0.43773080  0.62415571     0.35360
H1417       H  0.51946770  0.37543551  0.64427480     0.15730
O1418       O  0.53346095  0.36532022  0.72627315    -0.61200
H1419       H  0.64671124  0.45279823  0.67276802     0.15740
O1420       O  0.63341977  0.46159726  0.59147594    -0.61290
H1421       H  0.63791974  0.48959312  0.59810411     0.42740
H1422       H  0.53251105  0.33825948  0.72275725     0.42690
C1423       C  0.59851668  0.19897674  0.70632398    -0.06370
C1424       C  0.56203144  0.18411314  0.69898656    -0.33800
C1425       C  0.54873921  0.16436688  0.65915018     0.35450
C1426       C  0.57206756  0.15948294  0.62611629    -0.06730
C1427       C  0.60832316  0.17490207  0.63334669    -0.33700
C1428       C  0.62158545  0.19419837  0.67266567     0.35360
H1429       H  0.54382894  0.18745108  0.72423518     0.15730
O1430       O  0.51275683  0.14756073  0.65438808    -0.61200
H1431       H  0.62641151  0.17008885  0.60913451     0.15740
O1432       O  0.65685365  0.20556487  0.67925371    -0.61290
H1433       H  0.67071127  0.22885312  0.65809871     0.42740
H1434       H  0.00959326  0.16581930  0.63265724     0.42690
C1435       C  0.82258433  0.43045547  0.74714315    -0.06370
C1436       C  0.85195065  0.42185197  0.74476490    -0.33800
C1437       C  0.87313220  0.42790130  0.70444430     0.35450
C1438       C  0.86476215  0.44219593  0.66481644    -0.06730
C1439       C  0.83622487  0.45245596  0.66769440    -0.33700
C1440       C  0.81512048  0.44652758  0.70824566     0.35360
H1441       H  0.85798696  0.40933111  0.77408703     0.15730
O1442       O  0.90207618  0.41974355  0.70440935    -0.61200
H1443       H  0.82930982  0.46360899  0.63805824     0.15740
O1444       O  0.78600106  0.45436993  0.70871729    -0.61290
H1445       H  0.76724544  0.43067773  0.69533848     0.42740
H1446       H  0.89221422  0.39005278  0.70280753     0.42690
C1447       C  0.68810514  0.36718903  0.54288806    -0.06370
C1448       C  0.67403663  0.32952402  0.56492376    -0.33800
C1449       C  0.67280467  0.32719471  0.61126650     0.35450
C1450       C  0.68590607  0.36301317  0.63474910    -0.06730
C1451       C  0.69683771  0.40038532  0.61244246    -0.33700
C1452       C  0.69758321  0.40248020  0.56633425     0.35360
H1453       H  0.66402414  0.30221798  0.54632401     0.15730
O1454       O  0.65919024  0.29018463  0.63310140    -0.61200
H1455       H  0.70602441  0.42809023  0.63044776     0.15740
O1456       O  0.70876337  0.43908401  0.54427823    -0.61290
H1457       H  0.68686383  0.44279619  0.54206012     0.42740
H1458       H  0.63358271  0.28282188  0.64070563     0.42690
C1459       C  0.67402546  0.33079532  0.13197763    -0.06370
C1460       C  0.68099415  0.30680841  0.10099718    -0.33800
C1461       C  0.67123824  0.30636414  0.05759101     0.35450
C1462       C  0.65482828  0.33061342  0.04508077    -0.06730
C1463       C  0.65263166  0.35875498  0.07450718    -0.33700
C1464       C  0.66186298  0.35862536  0.11832180     0.35360
H1465       H  0.69073703  0.28561244  0.11141519     0.15730
O1466       O  0.67635824  0.28071843  0.02843660    -0.61200
H1467       H  0.64135231  0.37865878  0.06474327     0.15740
O1468       O  0.65716343  0.38410041  0.14828966    -0.61290
H1469       H  0.63099071  0.37277068  0.15537638     0.42740
H1470       H  0.69902061  0.29791625  0.01072869     0.42690
C1471       C  0.57414939  0.42601753  0.13534610    -0.06370
C1472       C  0.60956510  0.45152115  0.14452421    -0.33800
C1473       C  0.62292427  0.44646483  0.18500866     0.35450
C1474       C  0.60057228  0.41583506  0.21660459    -0.06730
C1475       C  0.56502544  0.39184990  0.20798684    -0.33700
C1476       C  0.55192453  0.39620541  0.16790570     0.35360
H1477       H  0.62679873  0.47512095  0.12035263     0.15730
O1478       O  0.65785974  0.47061471  0.19261421    -0.61200
H1479       H  0.54768709  0.36762098  0.23154250     0.15740
O1480       O  0.51741871  0.37000836  0.16045821    -0.61290
H1481       H  0.51913414  0.34739179  0.14459782     0.42740
H1482       H  0.67069806  0.45402003  0.18627853     0.42690
C1483       C  0.57497241  0.14245093  0.14877470    -0.06370
C1484       C  0.55127197  0.14477705  0.18313185    -0.33800
C1485       C  0.56196473  0.15689275  0.22622388     0.35450
C1486       C  0.59765013  0.16897479  0.23609980    -0.06730
C1487       C  0.62158938  0.16668711  0.20180963    -0.33700
C1488       C  0.61040322  0.15318692  0.15877387     0.35360
H1489       H  0.52368748  0.13621033  0.17693913     0.15730
O1490       O  0.53720066  0.15757792  0.25822972    -0.61200
H1491       H  0.64932252  0.17624301  0.20790928     0.15740
O1492       O  0.63428003  0.15049773  0.12696570    -0.61290
H1493       H  0.63342402  0.12367190  0.13270261     0.42740
H1494       H  0.52701486  0.13079843  0.27407963     0.42690
C1495       C  0.85097444  0.42398659  0.10357427    -0.06370
C1496       C  0.84652999  0.38796482  0.12497526    -0.33800
C1497       C  0.83003066  0.37658444  0.16833975     0.35450
C1498       C  0.81662933  0.40066812  0.19146132    -0.06730
C1499       C  0.82035747  0.43639799  0.17030053    -0.33700
C1500       C  0.83744471  0.44820368  0.12672612     0.35360
H1501       H  0.85697278  0.36890085  0.10872993     0.15730
O1502       O  0.82707560  0.34152417  0.18795903    -0.61200
H1503       H  0.80913504  0.45457403  0.18696897     0.15740
O1504       O  0.84013965  0.48300074  0.10680314    -0.61290
H1505       H  0.85967053  0.50517683  0.12113592     0.42740
H1506       H  0.84841759  0.34968871  0.20533818     0.42690
C1507       C  0.91257668  0.09064312  0.79853669    -0.06370
C1508       C  0.89265261  0.06843269  0.83754567    -0.33800
C1509       C  0.90912656  0.06750224  0.87671841     0.35450
C1510       C  0.94651220  0.08901323  0.87783087    -0.06730
C1511       C  0.96644647  0.11160177  0.83898733    -0.33700
C1512       C  0.94994053  0.11231809  0.79965029     0.35360
H1513       H  0.86393571  0.05134114  0.83773443     0.15730
O1514       O  0.88824971  0.04531102  0.91360528    -0.61200
H1515       H  0.99513945  0.12883812  0.83898735     0.15740
O1516       O  0.97058792  0.13523371  0.76303988    -0.61290
H1517       H  0.97909094  0.11757204  0.74653573     0.42740
H1518       H  0.88508798  0.01746296  0.90898279     0.42690
C1519       C  0.66720909  0.08314052  0.88851967    -0.06370
C1520       C  0.67329989  0.05268364  0.86703171    -0.33800
C1521       C  0.68517992  0.05640910  0.82120814     0.35450
C1522       C  0.69135373  0.09119606  0.79510061    -0.06730
C1523       C  0.68546211  0.12172788  0.81666863    -0.33700
C1524       C  0.67362093  0.11802920  0.86247754     0.35360
H1525       H  0.66814425  0.02519956  0.88559911     0.15730
O1526       O  0.69038408  0.02554145  0.80237225    -0.61200
H1527       H  0.69059894  0.14920021  0.79810978     0.15740
O1528       O  0.66853773  0.14896855  0.88133112    -0.61290
H1529       H  0.64519084  0.14574072  0.87183161     0.42740
H1530       H  0.71371346  0.02881334  0.81198690     0.42690
C1531       C  0.94804688  0.36094634  0.87029774    -0.06370
C1532       C  0.91075235  0.34468548  0.87012806    -0.33800
C1533       C  0.89279055  0.32266490  0.83398714     0.35450
C1534       C  0.91199024  0.31637482  0.79651964    -0.06730
C1535       C  0.94933933  0.33270649  0.79654697    -0.33700
C1536       C  0.96735123  0.35468988  0.83291803     0.35360
H1537       H  0.89526728  0.34933936  0.89804184     0.15730
O1538       O  0.85641156  0.30844868  0.83518297    -0.61200
H1539       H  0.96464096  0.32770529  0.76870109     0.15740
O1540       O  0.00362466  0.36819050  0.83253904    -0.61290
H1541       H  0.01412823  0.39028719  0.80924363     0.42740
H1542       H  0.84652939  0.28429589  0.85578650     0.42690
C1543       C  0.77493456  0.02634675  0.53387608    -0.06370
C1544       C  0.78508260  0.99806220  0.51516744    -0.33800
C1545       C  0.77694108  0.48451610  0.47155156     0.35450
C1546       C  0.75950983  0.50073329  0.44431215    -0.06730
C1547       C  0.74815379  0.52812614  0.46375372    -0.33700
C1548       C  0.75572518  0.04090544  0.50805239     0.35360
H1549       H  0.79972779  0.98643966  0.53458141     0.15730
O1550       O  0.78410104  0.45352243  0.45680748    -0.61200
H1551       H  0.73392859  0.54022164  0.44426862     0.15740
O1552       O  0.74646779  0.06973960  0.52451579    -0.61290
H1553       H  0.72276369  0.05452900  0.54102195     0.42740
H1554       H  0.80891933  0.46024313  0.46359186     0.42690
C1555       C  0.54816776  0.27605349  0.48479065    -0.06370
C1556       C  0.54739525  0.30318265  0.51722923    -0.33800
C1557       C  0.02705335  0.28969957  0.55829071     0.35450
C1558       C  0.00717550  0.24824897  0.56860464    -0.06730
C1559       C  0.00908524  0.22084815  0.53708989    -0.33700
C1560       C  0.52902485  0.23443232  0.49534096     0.35360
H1561       H  0.56211621  0.33538664  0.51052180     0.15730
O1562       O  0.02651667  0.31748900  0.58802628    -0.61200
H1563       H  0.99381470  0.18872087  0.54386806     0.15740
O1564       O  0.52979409  0.20678788  0.46549059    -0.61290
H1565       H  0.50801900  0.19890336  0.44904612     0.42740
H1566       H  0.00840329  0.32547157  0.57782276     0.42690
C1567       C  0.76829392  0.23452205  0.54424456    -0.06370
C1568       C  0.74870308  0.25678687  0.54734746    -0.33800
C1569       C  0.73651607  0.26656677  0.50877004     0.35450
C1570       C  0.74374775  0.25398501  0.46626780    -0.06730
C1571       C  0.76012522  0.22818537  0.46390923    -0.33700
C1572       C  0.77225202  0.21832171  0.50277773     0.35360
H1573       H  0.74497218  0.26895705  0.57910098     0.15730
O1574       O  0.71939423  0.29064057  0.51257882    -0.61200
H1575       H  0.76565718  0.21793918  0.43173317     0.15740
O1576       O  0.78925123  0.19411535  0.49975987    -0.61290
H1577       H  0.77000612  0.16622550  0.50433526     0.42740
H1578       H  0.69472756  0.27342690  0.50455389     0.42690
C1579       C  0.81760389  0.15190069  0.88380406    -0.06370
C1580       C  0.82531135  0.18931853  0.90225596    -0.33800
C1581       C  0.83749994  0.19764412  0.94475727     0.35450
C1582       C  0.84212471  0.16814844  0.96960903    -0.06730
C1583       C  0.83297696  0.13006794  0.95199647    -0.33700
C1584       C  0.82071699  0.12177839  0.90928298     0.35360
H1585       H  0.82282189  0.21283988  0.88331467     0.15730
O1586       O  0.84578413  0.23511808  0.96089903    -0.61200
H1587       H  0.83547743  0.10665400  0.97116472     0.15740
O1588       O  0.81175958  0.08427359  0.89295990    -0.61290
H1589       H  0.83481181  0.08399753  0.88365462     0.42740
H1590       H  0.82273234  0.23382097  0.97341169     0.42690
C1591       C  0.85117893  0.17343922  0.46192662    -0.06370
C1592       C  0.85148678  0.20631595  0.43811448    -0.33800
C1593       C  0.83282870  0.20051289  0.39978906     0.35450
C1594       C  0.81381999  0.16142440  0.38437931    -0.06730
C1595       C  0.81381938  0.12858457  0.40800502    -0.33700
C1596       C  0.83231626  0.13430672  0.44638806     0.35360
H1597       H  0.86574687  0.23662925  0.44963383     0.15730
O1598       O  0.83427118  0.23342025  0.37708368    -0.61200
H1599       H  0.79959963  0.09824433  0.39654040     0.15740
O1600       O  0.83031263  0.10117159  0.46937110    -0.61290
H1601       H  0.85413601  0.10186463  0.46370483     0.42740
H1602       H  0.85496873  0.24117950  0.35469473     0.42690
C1603       C  0.88864716  0.09667706  0.32206474    -0.06370
C1604       C  0.86529693  0.06842401  0.35493874    -0.33800
C1605       C  0.87566709  0.06558980  0.39775668     0.35450
C1606       C  0.90996410  0.09213092  0.41009759    -0.06730
C1607       C  0.93349637  0.12103604  0.37733617    -0.33700
C1608       C  0.92312320  0.12331481  0.33364462     0.35360
H1609       H  0.83852364  0.04759288  0.34733620     0.15730
O1610       O  0.85188351  0.03596179  0.42712311    -0.61200
H1611       H  0.96035214  0.14128500  0.38514412     0.15740
O1612       O  0.94679376  0.15166407  0.30286661    -0.61290
H1613       H  0.94274313  0.17589054  0.30721742     0.42740
H1614       H  0.85342103  0.01110197  0.41772134     0.42690
C1615       C  0.62399170  0.07291183  0.35838279    -0.06370
C1616       C  0.63075277  0.04228165  0.33918363    -0.33800
C1617       C  0.64907919  0.04839720  0.29641337     0.35450
C1618       C  0.66132139  0.08581514  0.27245339    -0.06730
C1619       C  0.65370273  0.11586533  0.29181372    -0.33700
C1620       C  0.63572394  0.10985571  0.33427116     0.35360
H1621       H  0.62117599  0.01334494  0.35684911     0.15730
O1622       O  0.65548090  0.01789251  0.27890599    -0.61200
H1623       H  0.66323874  0.14507495  0.27494884     0.15740
O1624       O  0.63033304  0.14080802  0.35253302    -0.61290
H1625       H  0.65177394  0.15634022  0.36898388     0.42740
H1626       H  0.63329386  0.00027618  0.26490054     0.42690
C1627       C  0.91068616  0.34919675  0.38960869    -0.06370
C1628       C  0.93491931  0.34320608  0.35913663    -0.33800
C1629       C  0.92410733  0.32554845  0.31743910     0.35450
C1630       C  0.88869834  0.31362219  0.30610724    -0.06730
C1631       C  0.86487646  0.31955246  0.33706805    -0.33700
C1632       C  0.87536951  0.33660704  0.37820997     0.35360
H1633       H  0.96250798  0.35389334  0.36666742     0.15730
O1634       O  0.94806025  0.31957838  0.28862779    -0.61200
H1635       H  0.83741556  0.31037775  0.32971017     0.15740
O1636       O  0.85067675  0.34099242  0.40744212    -0.61290
H1637       H  0.84711954  0.36355699  0.39448399     0.42740
H1638       H  0.96042603  0.34490257  0.27001745     0.42690
C1639       C  0.72354902  0.48407913  0.97517601    -0.06370
C1640       C  0.70378919  0.98409846  0.01510170    -0.33800
C1641       C  0.72082387  0.00187434  0.05358899     0.35450
C1642       C  0.75843726  0.02052195  0.05272577    -0.06730
C1643       C  0.77817685  0.52040534  0.01280524    -0.33700
C1644       C  0.76115735  0.50224841  0.97448867     0.35360
H1645       H  0.67487307  0.97012435  0.01668948     0.15730
O1646       O  0.70033280  0.00150019  0.09148197    -0.61200
H1647       H  0.80708761  0.53438319  0.01116375     0.15740
O1648       O  0.78168992  0.50227163  0.93674846    -0.61290
H1649       H  0.78623480  0.47839634  0.94087917     0.42740
H1650       H  0.69258899  0.97454826  0.10611675     0.42690
C1651       C  0.98008840  0.24336633  0.05758600    -0.06370
C1652       C  0.48843322  0.28075875  0.03611157    -0.33800
C1653       C  0.50071709  0.28884562  0.99041437     0.35450
C1654       C  0.50558471  0.25950395  0.96442643    -0.06730
C1655       C  0.99739592  0.22214353  0.98592389    -0.33700
C1656       C  0.98494039  0.21399902  0.03165088     0.35360
H1657       H  0.48474595  0.30387840  0.05463526     0.15730
O1658       O  0.50872602  0.32615376  0.97202961    -0.61200
H1659       H  0.00118133  0.19910215  0.96736330     0.15740
O1660       O  0.97673556  0.17667059  0.05011672    -0.61290
H1661       H  0.99927039  0.17903944  0.06150781     0.42740
H1662       H  0.48624822  0.32351231  0.96019645     0.42690
C1663       C  0.76052230  0.24526516  0.04260065    -0.06370
C1664       C  0.77897070  0.27823979  0.01211376    -0.33800
C1665       C  0.76328089  0.28328376  0.97386789     0.35450
C1666       C  0.72850360  0.25494877  0.96521482    -0.06730
C1667       C  0.71033432  0.22158019  0.99528673    -0.33700
C1668       C  0.72604847  0.21658790  0.03350552     0.35360
H1669       H  0.80554022  0.30064044  0.01834924     0.15730
O1670       O  0.78135918  0.31730056  0.94675827    -0.61200
H1671       H  0.68366095  0.19931481  0.98926057     0.15740
O1672       O  0.70795767  0.18272867  0.06076025    -0.61290
H1673       H  0.69565570  0.19101367  0.08511078     0.42740
H1674       H  0.79748856  0.31105988  0.92583830     0.42690
N1675       N  0.86534696  0.66531403  0.07944637    -0.07020
N1676       N  0.85876896  0.64836967  0.04040644    -0.59140
N1677       N  0.91696205  0.72958798  0.14750702    -0.06700
N1678       N  0.94446879  0.75504023  0.12094402    -0.61270
N1679       N  0.91725290  0.69392425  0.14852261    -0.06300
N1680       N  0.94472909  0.69581419  0.12209186    -0.59120
N1681       N  0.86523311  0.70076084  0.07764189    -0.05980
N1682       N  0.85860212  0.70868639  0.03736859    -0.61620
C1683       C  0.85477238  0.67587357  0.01454460     0.95150
C1684       C  0.96114161  0.73365228  0.10396794     0.94930
N1685       N  0.83457061  0.74826267  0.22736456    -0.07210
N1686       N  0.83837665  0.76534004  0.26630992    -0.59720
N1687       N  0.81834527  0.73826034  0.12012828    -0.05330
N1688       N  0.81365715  0.75024902  0.08041982    -0.60970
N1689       N  0.78793960  0.72197467  0.14501449    -0.07240
N1690       N  0.76186128  0.72230332  0.12237185    -0.59990
N1691       N  0.86543458  0.76212772  0.20339409    -0.04970
N1692       N  0.89105464  0.78889466  0.22642817    -0.61060
Mn1693     Mn  0.86702814  0.73406444  0.13808893     1.18440
C1694       C  0.87340636  0.79065114  0.26574341     0.97230
C1695       C  0.77844206  0.74031130  0.08205326     0.97900
N1696       N  0.86610041  0.61321733  0.21237146    -0.07260
N1697       N  0.89177730  0.61610861  0.23833360    -0.63570
N1698       N  0.78857246  0.57061950  0.15364365    -0.06060
N1699       N  0.76194369  0.54432204  0.13207785    -0.64240
N1700       N  0.81872935  0.58383862  0.12843079    -0.06770
N1701       N  0.81311676  0.56670355  0.08921901    -0.63830
N1702       N  0.83491891  0.59629498  0.23569439    -0.05660
N1703       N  0.83856511  0.58688084  0.27683931    -0.64520
Mn1704     Mn  0.86750655  0.63809362  0.14329198     1.10660
C1705       C  0.87379635  0.59906992  0.27862886     0.98460
C1706       C  0.77770691  0.54195364  0.09182781     0.98530
N1707       N  0.73748979  0.63941055  0.20087668    -0.06770
N1708       N  0.70652450  0.63622528  0.21841621    -0.62150
N1709       N  0.78618917  0.63061090  0.27758143    -0.06090
N1710       N  0.79263785  0.62173456  0.31756682    -0.58880
N1711       N  0.78704291  0.66647903  0.27636139    -0.07400
N1712       N  0.79452074  0.68294897  0.31571978    -0.61710
N1713       N  0.73757732  0.60379906  0.20299578    -0.06390
N1714       N  0.70683577  0.57682681  0.22239537    -0.58900
Mn1715     Mn  0.78620684  0.69482032  0.21182585     1.20190
Mn1716     Mn  0.78640234  0.59910362  0.21671548     1.10090
Cl1717     Cl  0.82701994  0.66670901  0.17751366    -0.87290
C1718       C  0.68765156  0.59727388  0.23249881     0.95460
C1719       C  0.79771688  0.65448598  0.34112582     0.95260
N1720       N  0.80183609  0.57072693  0.63971016    -0.07020
N1721       N  0.77520626  0.54670721  0.61587276    -0.59140
N1722       N  0.88140256  0.60814156  0.69575179    -0.06700
N1723       N  0.90850611  0.60954458  0.71761022    -0.61270
N1724       N  0.85161186  0.59162756  0.72183855    -0.06300
N1725       N  0.85784363  0.58136561  0.76152347    -0.59120
N1726       N  0.83222054  0.58436784  0.61466493    -0.05980
N1727       N  0.82709983  0.56968708  0.57429598    -0.61620
C1728       C  0.79173950  0.54627540  0.57507476     0.95150
C1729       C  0.89327394  0.59235128  0.75874607     0.94930
N1730       N  0.93098697  0.72702651  0.64083755    -0.07210
N1731       N  0.96151296  0.75429115  0.62127326    -0.59720
N1732       N  0.87893588  0.66695080  0.56865857    -0.05330
N1733       N  0.87133914  0.65151885  0.52897506    -0.60970
N1734       N  0.87917967  0.70253492  0.56928024    -0.07240
N1735       N  0.87190942  0.71211301  0.53002550    -0.59990
N1736       N  0.93076324  0.69119183  0.63998557    -0.04970
N1737       N  0.96094070  0.69436278  0.61949959    -0.61060
Mn1738     Mn  0.88131797  0.63669391  0.63050663     1.18440
C1739       C  0.98003701  0.73375767  0.60779653     0.97230
C1740       C  0.86718331  0.68006384  0.50517111     0.97900
N1741       N  0.80540565  0.62715088  0.77102016    -0.07260
N1742       N  0.80799819  0.61583456  0.81195971    -0.63570
N1743       N  0.75291519  0.63832235  0.70314858    -0.06060
N1744       N  0.72586590  0.63695178  0.72991908    -0.64240
N1745       N  0.75245263  0.60228246  0.70327859    -0.06770
N1746       N  0.72533368  0.57731602  0.73077011    -0.63830
N1747       N  0.80560714  0.66275535  0.77104245    -0.05660
N1748       N  0.80811344  0.67638880  0.81166246    -0.64520
Mn1749     Mn  0.80237636  0.59635237  0.70787051     1.10660
C1750       C  0.80951195  0.64690087  0.83683181     0.98460
C1751       C  0.70934108  0.59926363  0.74827881     0.98530
N1752       N  0.83139007  0.73567167  0.61759945    -0.06770
N1753       N  0.82392248  0.74362402  0.57760368    -0.62150
N1754       N  0.85236194  0.74619292  0.72460410    -0.06090
N1755       N  0.85813453  0.76431413  0.76319571    -0.58880
N1756       N  0.88182561  0.76053708  0.69788164    -0.07400
N1757       N  0.90834087  0.78880153  0.71814667    -0.61710
N1758       N  0.80226001  0.72049370  0.64506602    -0.06390
N1759       N  0.77450066  0.71836975  0.62429771    -0.58900
Mn1760     Mn  0.88144639  0.73297551  0.63202173     1.20190
Mn1761     Mn  0.80313201  0.69289030  0.71006642     1.10090
Cl1762     Cl  0.84204448  0.66471824  0.67020175    -0.86870
C1763       C  0.78860777  0.73298948  0.58218089     0.95460
C1764       C  0.89298770  0.79105006  0.75899294     0.95260
N1765       N  0.68290956  0.88095290  0.43079968    -0.07020
N1766       N  0.66867927  0.87713603  0.47187644    -0.59140
N1767       N  0.74194258  0.93775262  0.35346730    -0.06700
N1768       N  0.76641010  0.96580647  0.37621302    -0.61270
N1769       N  0.71180225  0.94152157  0.35832805    -0.06300
N1770       N  0.71629806  0.97129791  0.38570654    -0.59120
N1771       N  0.71253385  0.87679186  0.42933832    -0.05980
N1772       N  0.71925131  0.86974083  0.46995112    -0.61620
C1773       C  0.69141775  0.86982020  0.49534385     0.95150
C1774       C  0.75003274  0.98549907  0.39799894     0.94930
N1775       N  0.75205188  0.84242103  0.27693827    -0.07210
N1776       N  0.76846551  0.84581002  0.23700571    -0.59720
N1777       N  0.74037005  0.82077272  0.38473436    -0.05330
N1778       N  0.74999521  0.81398370  0.42363003    -0.60970
N1779       N  0.72505250  0.78708669  0.36337339    -0.07240
N1780       N  0.72437641  0.75650640  0.38765880    -0.59990
N1781       N  0.76605392  0.87663218  0.29750826    -0.04970
N1782       N  0.79246973  0.90440487  0.27117405    -0.61060
Mn1783     Mn  0.74135623  0.87850675  0.36511806     1.18440
C1784       C  0.79362135  0.88421063  0.23356530     0.97230
C1785       C  0.74013821  0.77416863  0.42532534     0.97900
N1786       N  0.63643972  0.89009606  0.30915335    -0.07260
N1787       N  0.63334009  0.91927229  0.28653391    -0.63570
N1788       N  0.59645975  0.80074562  0.37661044    -0.06060
N1789       N  0.57096470  0.77283374  0.40383051    -0.64240
N1790       N  0.61034875  0.83531169  0.39648434    -0.06770
N1791       N  0.59490234  0.83175495  0.43713877    -0.63830
N1792       N  0.62024575  0.85568201  0.28954316    -0.05660
N1793       N  0.60617503  0.86040115  0.25345040    -0.64520
Mn1794     Mn  0.65999454  0.88778527  0.37208078     1.10660
C1795       C  0.61442112  0.89977570  0.25158711     0.98460
C1796       C  0.57037563  0.79296657  0.44171881     0.98530
N1797       N  0.65070443  0.73687931  0.31353110    -0.06770
N1798       N  0.64556858  0.70614856  0.28755715    -0.62150
N1799       N  0.64860402  0.80193186  0.24426155    -0.06090
N1800       N  0.64255433  0.81484022  0.20633309    -0.58880
N1801       N  0.67882549  0.79896263  0.24014587    -0.07400
N1802       N  0.69387456  0.80935603  0.19899368    -0.61710
N1803       N  0.62045504  0.74008619  0.31999898    -0.06390
N1804       N  0.59507013  0.71057395  0.29990439    -0.58900
Mn1805     Mn  0.70219954  0.79043893  0.29949509     1.20190
Mn1806     Mn  0.62044936  0.79883153  0.30887078     1.10090
Cl1807     Cl  0.68107896  0.83894746  0.33635931    -0.86870
C1808       C  0.61092218  0.69005200  0.27868414     0.95460
C1809       C  0.67097248  0.81955508  0.17885252     0.95260
N1810       N  0.69900444  0.78479249  0.86883232    -0.07020
N1811       N  0.72552917  0.78288682  0.88891139    -0.59140
N1812       N  0.62102911  0.74662251  0.81131320    -0.06700
N1813       N  0.59587847  0.72032700  0.78734723    -0.61270
N1814       N  0.65187430  0.76260645  0.78723473    -0.06300
N1815       N  0.64844521  0.74769612  0.74707709    -0.59120
N1816       N  0.66879338  0.76633293  0.89372403    -0.05980
N1817       N  0.67415035  0.75123486  0.93111254    -0.61620
C1818       C  0.70955099  0.76157660  0.92781560     0.95150
C1819       C  0.61375349  0.72123690  0.74717950     0.94930
N1820       N  0.56762525  0.81028701  0.87352817    -0.07210
N1821       N  0.53995537  0.80744527  0.90014834    -0.59720
N1822       N  0.62117408  0.80101279  0.94100100    -0.05330
N1823       N  0.63177223  0.79249606  0.97812657    -0.60970
N1824       N  0.62079925  0.83639247  0.94271822    -0.07240
N1825       N  0.63147978  0.85269598  0.98139999    -0.59990
N1826       N  0.56846535  0.77489643  0.87334819    -0.04970
N1827       N  0.54143797  0.74885687  0.90019685    -0.61060
Mn1828     Mn  0.61915653  0.77080622  0.87886571     1.18440
C1829       C  0.52426060  0.76951384  0.91788339     0.97230
C1830       C  0.63823956  0.82485174  0.00279424     0.97900
N1831       N  0.69763681  0.84657279  0.74552136    -0.07260
N1832       N  0.69335184  0.83320988  0.70469914    -0.63570
N1833       N  0.74651772  0.90639792  0.81957552    -0.06060
N1834       N  0.77652657  0.93494838  0.80037067    -0.64240
N1835       N  0.74782441  0.87132898  0.81837755    -0.06770
N1836       N  0.77890052  0.87654541  0.79866630    -0.63830
N1837       N  0.69695838  0.88159470  0.74716376    -0.05660
N1838       N  0.69230205  0.89317605  0.70774220    -0.64520
Mn1839     Mn  0.69965224  0.81559936  0.80567533     1.10660
C1840       C  0.68994354  0.86267320  0.68196997     0.98460
C1841       C  0.79655225  0.91618327  0.78719049     0.98530
N1842       N  0.66409627  0.92103546  0.89850764    -0.06770
N1843       N  0.66928423  0.93702878  0.93837441    -0.62150
N1844       N  0.64786566  0.91321676  0.79091652    -0.06090
N1845       N  0.64427998  0.92366570  0.75011020    -0.58880
N1846       N  0.61654445  0.89412341  0.81346865    -0.07400
N1847       N  0.59086621  0.89077009  0.78705221    -0.61710
N1848       N  0.69419303  0.93612758  0.87315687    -0.06390
N1849       N  0.72039168  0.96261179  0.89507445    -0.58900
Mn1850     Mn  0.61642971  0.86635834  0.88125787     1.20190
Mn1851     Mn  0.69673866  0.91039714  0.80877055     1.10090
Cl1852     Cl  0.65785569  0.84061060  0.84393637    -0.86870
C1853       C  0.70442081  0.96305214  0.93586028     0.95460
C1854       C  0.60893825  0.90988171  0.74732294     0.95260
N1855       N  0.97478842  0.91415759  0.97087125    -0.07020
N1856       N  0.94926378  0.88672302  0.94871424    -0.59140
N1857       N  0.55119497  0.95078057  0.03081043    -0.06700
N1858       N  0.57672255  0.95091615  0.05504577    -0.61270
N1859       N  0.52001974  0.93312902  0.05387681    -0.06300
N1860       N  0.52353257  0.92070489  0.09361205    -0.59120
N1861       N  0.00539013  0.92872631  0.94645004    -0.05980
N1862       N  0.00124348  0.91155331  0.90716414    -0.61620
C1863       C  0.96620380  0.88521779  0.90887359     0.95150
C1864       C  0.55866590  0.93149813  0.09418464     0.94930
N1865       N  0.60392875  0.57130682  0.97752246    -0.07210
N1866       N  0.63194411  0.59657508  0.95148143    -0.59720
N1867       N  0.55349736  0.01373231  0.90653312    -0.05330
N1868       N  0.04588676  0.99784214  0.86743103    -0.60970
N1869       N  0.55273982  0.54887296  0.90725538    -0.07240
N1870       N  0.54425252  0.55747304  0.86829025    -0.59990
N1871       N  0.60337797  0.53521222  0.97768427    -0.04970
N1872       N  0.63131032  0.53691556  0.95255947    -0.61060
Mn1873     Mn  0.55390191  0.98138646  0.96628562     1.18440
C1874       C  0.64842041  0.57480371  0.93488618     0.97230
C1875       C  0.04017404  0.02523473  0.84409377     0.97900
N1876       N  0.47257024  0.96618979  0.10130674    -0.07260
N1877       N  0.47606313  0.95346902  0.14112041    -0.63570
N1878       N  0.92433439  0.98204726  0.02957356    -0.06060
N1879       N  0.89427631  0.97827001  0.05104933    -0.64240
N1880       N  0.92389122  0.94619685  0.02644064    -0.06770
N1881       N  0.89338530  0.91849682  0.04543473    -0.63830
N1882       N  0.47389640  0.50225814  0.10317543    -0.05660
N1883       N  0.47867101  0.51522353  0.14412244    -0.64520
Mn1884     Mn  0.97225209  0.93872403  0.03718150     1.10660
C1885       C  0.48012421  0.48462668  0.16703455     0.98460
C1886       C  0.87525847  0.93864562  0.06162928     0.98530
N1887       N  0.00604361  0.58443399  0.95483242    -0.06770
N1888       N  0.00081733  0.59670549  0.91554026    -0.62150
N1889       N  0.52167795  0.58682083  0.06294159    -0.06090
N1890       N  0.52496298  0.60026725  0.10385737    -0.58880
N1891       N  0.55285719  0.60177841  0.03964519    -0.07400
N1892       N  0.57819273  0.62556304  0.06532977    -0.61710
N1893       N  0.97570185  0.56723810  0.97972852    -0.06390
N1894       N  0.94932024  0.56742018  0.95769411    -0.58900
Mn1895     Mn  0.55457296  0.57828418  0.97071851     1.20190
Mn1896     Mn  0.97352698  0.53545223  0.04316398     1.10090
Cl1897     Cl  0.51366575  0.50856890  0.00418952    -0.86870
C1898       C  0.96542465  0.58624121  0.91757727     0.95460
C1899       C  0.56003897  0.62447340  0.10549725     0.95260
N1900       N  0.48600146  0.53971607  0.41235171    -0.07020
N1901       N  0.49986087  0.54312930  0.37080238    -0.59140
N1902       N  0.93188880  0.54377808  0.49509897    -0.06700
N1903       N  0.90661563  0.54883732  0.47570576    -0.61270
N1904       N  0.96254255  0.57657229  0.48739724    -0.06300
N1905       N  0.95764623  0.60278580  0.46174879    -0.59120
N1906       N  0.95516646  0.00746535  0.41793703    -0.05980
N1907       N  0.94737932  0.98827808  0.38034310    -0.61620
C1908       C  0.47541795  0.01079129  0.35136731     0.95150
C1909       C  0.92286170  0.58494762  0.45353674     0.94930
N1910       N  0.92221467  0.93926538  0.57377844    -0.07210
N1911       N  0.90866684  0.92946497  0.61552687    -0.59720
N1912       N  0.92784131  0.92586630  0.46637192    -0.05330
N1913       N  0.91405134  0.90791662  0.42985462    -0.60970
N1914       N  0.94437776  0.90752190  0.48551534    -0.07240
N1915       N  0.94194263  0.87619984  0.46168731    -0.59990
N1916       N  0.90794925  0.95969532  0.55382141    -0.04970
N1917       N  0.88398052  0.96384307  0.58210447    -0.61060
Mn1918     Mn  0.92968105  0.98388914  0.48463555     1.18440
C1919       C  0.88494416  0.94474324  0.62080039     0.97230
C1920       C  0.92272316  0.87715595  0.42693783     0.97900
N1921       N  0.53822214  0.59907233  0.53198719    -0.07260
N1922       N  0.54061816  0.63076884  0.55497234    -0.63570
N1923       N  0.57492495  0.54686508  0.46522358    -0.06060
N1924       N  0.60070877  0.54503196  0.43829067    -0.64240
N1925       N  0.56053609  0.56699763  0.44488430    -0.06770
N1926       N  0.57592580  0.57924566  0.40430118    -0.63830
N1927       N  0.55447271  0.58087349  0.55198101    -0.05660
N1928       N  0.56810525  0.59933841  0.58839199    -0.64520
Mn1929     Mn  0.51237916  0.57191068  0.47006892     1.10660
C1930       C  0.55937359  0.63011627  0.59031218     0.98460
C1931       C  0.60089573  0.56571352  0.40036220     0.98530
N1932       N  0.52083360  0.92992219  0.53264042    -0.06770
N1933       N  0.52529840  0.90461757  0.56037407    -0.62150
N1934       N  0.52643772  0.49908899  0.59986788    -0.06090
N1935       N  0.53478824  0.51684032  0.63806606    -0.58880
N1936       N  0.99622491  0.96603471  0.60520152    -0.07400
N1937       N  0.98335928  0.96010877  0.64731856    -0.61710
N1938       N  0.55147970  0.96297841  0.52567376    -0.06390
N1939       N  0.57622472  0.95884976  0.54764011    -0.58900
Mn1940     Mn  0.97028674  0.93417265  0.54786978     1.20190
Mn1941     Mn  0.55280100  0.52279144  0.53422299     1.10090
Cl1942     Cl  0.49136347  0.50306715  0.50898898    -0.86870
C1943       C  0.55969210  0.92304658  0.57042752     0.95460
C1944       C  0.50767171  0.49223212  0.66687010     0.95260
C1945       C  0.02538893  0.01660502  0.80086507    -0.06370
C1946       C  0.51141190  0.97655700  0.78754751    -0.33800
C1947       C  0.50210582  0.46737858  0.74414086     0.35450
C1948       C  0.50681731  0.49863341  0.71402414    -0.06730
C1949       C  0.01750897  0.53799267  0.72813146    -0.33700
C1950       C  0.02656325  0.54714299  0.77187784     0.35360
H1951       H  0.50934484  0.95251210  0.81008980     0.15730
O1952       O  0.49296955  0.92906389  0.73006187    -0.61200
H1953       H  0.02094240  0.56199742  0.70449124     0.15740
O1954       O  0.03942233  0.58628552  0.78456824    -0.61290
H1955       H  0.01790181  0.59040478  0.79215239     0.42740
H1956       H  0.46702160  0.91380448  0.73853712     0.42690
C1957       C  0.48470408  0.48562373  0.21455838    -0.06370
C1958       C  0.95815763  0.95622160  0.24310273    -0.33800
C1959       C  0.95576354  0.96303645  0.28863931     0.35450
C1960       C  0.48024505  0.99972065  0.30545515    -0.06730
C1961       C  0.50922800  0.52683784  0.27736156    -0.33700
C1962       C  0.51149804  0.51988208  0.23192854     0.35360
H1963       H  0.93767900  0.92952873  0.22963900     0.15730
O1964       O  0.92827799  0.93469812  0.31565242    -0.61200
H1965       H  0.52915307  0.55440788  0.28999860     0.15740
O1966       O  0.53925359  0.54729441  0.20440544    -0.61290
H1967       H  0.53038950  0.56618354  0.19343677     0.42740
H1968       H  0.93844137  0.91764450  0.32837627     0.42690
C1969       C  0.57212851  0.91589784  0.61454180    -0.06370
C1970       C  0.54749696  0.89183369  0.64993723    -0.33800
C1971       C  0.55833864  0.88941531  0.69343489     0.35450
C1972       C  0.59433076  0.91176439  0.70287735    -0.06730
C1973       C  0.61873041  0.93544271  0.66730399    -0.33700
C1974       C  0.60810198  0.93773079  0.62415574     0.35360
H1975       H  0.51946772  0.87543553  0.64427484     0.15730
O1976       O  0.53346095  0.86532027  0.72627320    -0.61200
H1977       H  0.64671126  0.95279822  0.67276805     0.15740
O1978       O  0.63341980  0.96159724  0.59147597    -0.61290
H1979       H  0.63791976  0.98959310  0.59810413     0.42740
H1980       H  0.53251103  0.83825952  0.72275733     0.42690
C1981       C  0.59851670  0.69897678  0.70632389    -0.06370
C1982       C  0.56203146  0.68411318  0.69898648    -0.33800
C1983       C  0.54873923  0.66436692  0.65915010     0.35450
C1984       C  0.57206758  0.65948298  0.62611621    -0.06730
C1985       C  0.60832318  0.67490211  0.63334661    -0.33700
C1986       C  0.62158548  0.69419840  0.67266559     0.35360
H1987       H  0.54382897  0.68745111  0.72423510     0.15730
O1988       O  0.51275685  0.64756077  0.65438801    -0.61200
H1989       H  0.62641153  0.67008889  0.60913442     0.15740
O1990       O  0.65685367  0.70556491  0.67925363    -0.61290
H1991       H  0.67071130  0.72885314  0.65809861     0.42740
H1992       H  0.00959324  0.66581927  0.63265726     0.42690
C1993       C  0.82258433  0.93045546  0.74714316    -0.06370
C1994       C  0.85195064  0.92185195  0.74476490    -0.33800
C1995       C  0.87313220  0.92790128  0.70444430     0.35450
C1996       C  0.86476214  0.94219592  0.66481644    -0.06730
C1997       C  0.83622487  0.95245595  0.66769441    -0.33700
C1998       C  0.81512048  0.94652757  0.70824567     0.35360
H1999       H  0.85798695  0.90933108  0.77408704     0.15730
O2000       O  0.90207617  0.91974353  0.70440935    -0.61200
H2001       H  0.82930982  0.96360898  0.63805825     0.15740
O2002       O  0.78600106  0.95436992  0.70871730    -0.61290
H2003       H  0.76724544  0.93067772  0.69533849     0.42740
H2004       H  0.89221421  0.89005275  0.70280753     0.42690
C2005       C  0.68810512  0.86718905  0.54288807    -0.06370
C2006       C  0.67403662  0.82952405  0.56492377    -0.33800
C2007       C  0.67280465  0.82719473  0.61126651     0.35450
C2008       C  0.68590606  0.86301320  0.63474911    -0.06730
C2009       C  0.69683769  0.90038534  0.61244247    -0.33700
C2010       C  0.69758319  0.90248022  0.56633426     0.35360
H2011       H  0.66402413  0.80221800  0.54632402     0.15730
O2012       O  0.65919023  0.79018465  0.63310141    -0.61200
H2013       H  0.70602439  0.92809026  0.63044777     0.15740
O2014       O  0.70876335  0.93908403  0.54427824    -0.61290
H2015       H  0.68686381  0.94279620  0.54206012     0.42740
H2016       H  0.63358270  0.78282190  0.64070564     0.42690
C2017       C  0.67402548  0.83079517  0.13197762    -0.06370
C2018       C  0.68099367  0.80680779  0.10099735    -0.33800
C2019       C  0.67123757  0.80636334  0.05759126     0.35450
C2020       C  0.65482799  0.83061298  0.04508087    -0.06730
C2021       C  0.65263182  0.85875490  0.07450710    -0.33700
C2022       C  0.66186329  0.85862542  0.11832166     0.35360
H2023       H  0.69073628  0.78561161  0.11141549     0.15730
O2024       O  0.67635707  0.78071717  0.02843708    -0.61200
H2025       H  0.64135274  0.87865894  0.06474308     0.15740
O2026       O  0.65716418  0.88410085  0.14828936    -0.61290
H2027       H  0.63099151  0.87277136  0.15537638     0.42740
H2028       H  0.69901951  0.79791460  0.01072910     0.42690
C2029       C  0.57414943  0.92601755  0.13534605    -0.06370
C2030       C  0.60956512  0.95152119  0.14452418    -0.33800
C2031       C  0.62292430  0.94646487  0.18500863     0.35450
C2032       C  0.60057232  0.91583508  0.21660455    -0.06730
C2033       C  0.56502548  0.89184991  0.20798678    -0.33700
C2034       C  0.55192457  0.89620542  0.16790565     0.35360
H2035       H  0.62679875  0.97512100  0.12035261     0.15730
O2036       O  0.65785976  0.97061478  0.19261419    -0.61200
H2037       H  0.54768714  0.86762098  0.23154244     0.15740
O2038       O  0.51741876  0.87000836  0.16045815    -0.61290
H2039       H  0.51913420  0.84739180  0.14459775     0.42740
H2040       H  0.67069809  0.95402009  0.18627861     0.42690
C2041       C  0.57497244  0.64245097  0.14877467    -0.06370
C2042       C  0.55127199  0.64477697  0.18313188    -0.33800
C2043       C  0.56196477  0.65689269  0.22622391     0.35450
C2044       C  0.59765019  0.66897484  0.23609977    -0.06730
C2045       C  0.62158946  0.66668728  0.20180954    -0.33700
C2046       C  0.61040329  0.65318709  0.15877379     0.35360
H2047       H  0.52368747  0.63621016  0.17693920     0.15730
O2048       O  0.53720068  0.65757776  0.25822979    -0.61200
H2049       H  0.64932262  0.67624328  0.20790915     0.15740
O2050       O  0.63428014  0.65049807  0.12696554    -0.61290
H2051       H  0.63342423  0.62367227  0.13270237     0.42740
H2052       H  0.52701495  0.63079827  0.27407968     0.42690
C2053       C  0.85097447  0.92398661  0.10357430    -0.06370
C2054       C  0.84653002  0.88796485  0.12497530    -0.33800
C2055       C  0.83003070  0.87658448  0.16833979     0.35450
C2056       C  0.81662937  0.90066816  0.19146136    -0.06730
C2057       C  0.82035750  0.93639801  0.17030056    -0.33700
C2058       C  0.83744473  0.94820370  0.12672615     0.35360
H2059       H  0.85697282  0.86890089  0.10872997     0.15730
O2060       O  0.82707565  0.84152421  0.18795908    -0.61200
H2061       H  0.80913506  0.95457405  0.18696900     0.15740
O2062       O  0.84013966  0.98300075  0.10680316    -0.61290
H2063       H  0.85967053  0.00517685  0.12113593     0.42740
H2064       H  0.84841765  0.84968876  0.20533822     0.42690
C2065       C  0.91257667  0.59064312  0.79853670    -0.06370
C2066       C  0.89265259  0.56843268  0.83754568    -0.33800
C2067       C  0.90912655  0.56750224  0.87671841     0.35450
C2068       C  0.94651219  0.58901323  0.87783089    -0.06730
C2069       C  0.96644646  0.61160178  0.83898734    -0.33700
C2070       C  0.94994052  0.61231809  0.79965030     0.35360
H2071       H  0.86393570  0.55134113  0.83773443     0.15730
O2072       O  0.88824969  0.54531101  0.91360529    -0.61200
H2073       H  0.99513944  0.62883814  0.83898737     0.15740
O2074       O  0.97058791  0.63523371  0.76303989    -0.61290
H2075       H  0.97909094  0.61757205  0.74653576     0.42740
H2076       H  0.88508797  0.51746295  0.90898279     0.42690
C2077       C  0.66720910  0.58314050  0.88851969    -0.06370
C2078       C  0.67329989  0.55268362  0.86703172    -0.33800
C2079       C  0.68517991  0.55640907  0.82120815     0.35450
C2080       C  0.69135373  0.59119604  0.79510062    -0.06730
C2081       C  0.68546212  0.62172786  0.81666865    -0.33700
C2082       C  0.67362095  0.61802919  0.86247757     0.35360
H2083       H  0.66814425  0.52519953  0.88559912     0.15730
O2084       O  0.69038407  0.52554143  0.80237226    -0.61200
H2085       H  0.69059896  0.64920020  0.79810980     0.15740
O2086       O  0.66853776  0.64896854  0.88133115    -0.61290
H2087       H  0.64519087  0.64574072  0.87183164     0.42740
H2088       H  0.71371345  0.52881331  0.81198690     0.42690
C2089       C  0.94804687  0.86094633  0.87029775    -0.06370
C2090       C  0.91075235  0.84468546  0.87012807    -0.33800
C2091       C  0.89279055  0.82266488  0.83398716     0.35450
C2092       C  0.91199024  0.81637480  0.79651965    -0.06730
C2093       C  0.94933933  0.83270649  0.79654698    -0.33700
C2094       C  0.96735122  0.85468987  0.83291803     0.35360
H2095       H  0.89526728  0.84933934  0.89804185     0.15730
O2096       O  0.85641156  0.80844865  0.83518299    -0.61200
H2097       H  0.96464096  0.82770529  0.76870109     0.15740
O2098       O  0.00362466  0.86819050  0.83253904    -0.61290
H2099       H  0.01412822  0.89028722  0.80924365     0.42740
H2100       H  0.84652939  0.78429584  0.85578650     0.42690
C2101       C  0.77493456  0.52634674  0.53387606    -0.06370
C2102       C  0.78508261  0.49806220  0.51516742    -0.33800
C2103       C  0.77694107  0.98451611  0.47155158     0.35450
C2104       C  0.75950984  0.00073331  0.44431216    -0.06730
C2105       C  0.74815381  0.02812616  0.46375373    -0.33700
C2106       C  0.75572517  0.54090542  0.50805238     0.35360
H2107       H  0.79972780  0.48643967  0.53458139     0.15730
O2108       O  0.78410103  0.95352244  0.45680750    -0.61200
H2109       H  0.73392861  0.04022167  0.44426863     0.15740
O2110       O  0.74646778  0.56973958  0.52451578    -0.61290
H2111       H  0.72276368  0.55452898  0.54102195     0.42740
H2112       H  0.80891931  0.96024313  0.46359188     0.42690
C2113       C  0.54816776  0.77605350  0.48479063    -0.06370
C2114       C  0.54739524  0.80318267  0.51722920    -0.33800
C2115       C  0.02705336  0.78969956  0.55829073     0.35450
C2116       C  0.00717551  0.74824895  0.56860467    -0.06730
C2117       C  0.00908524  0.72084814  0.53708992    -0.33700
C2118       C  0.52902486  0.73443234  0.49534094     0.35360
H2119       H  0.56211620  0.83538665  0.51052177     0.15730
O2120       O  0.02651668  0.81748898  0.58802630    -0.61200
H2121       H  0.99381471  0.68872085  0.54386809     0.15740
O2122       O  0.52979410  0.70678790  0.46549056    -0.61290
H2123       H  0.50801901  0.69890337  0.44904610     0.42740
H2124       H  0.00840330  0.82547155  0.57782279     0.42690
C2125       C  0.76829393  0.73452206  0.54424458    -0.06370
C2126       C  0.74870307  0.75678686  0.54734749    -0.33800
C2127       C  0.73651606  0.76656676  0.50877008     0.35450
C2128       C  0.74374776  0.75398503  0.46626783    -0.06730
C2129       C  0.76012523  0.72818539  0.46390924    -0.33700
C2130       C  0.77225204  0.71832173  0.50277774     0.35360
H2131       H  0.74497216  0.76895703  0.57910102     0.15730
O2132       O  0.71939421  0.79064056  0.51257886    -0.61200
H2133       H  0.76565720  0.71793921  0.43173318     0.15740
O2134       O  0.78925125  0.69411537  0.49975987    -0.61290
H2135       H  0.77000614  0.66622552  0.50433526     0.42740
H2136       H  0.69472755  0.77342688  0.50455395     0.42690
C2137       C  0.81760382  0.65190065  0.88380407    -0.06370
C2138       C  0.82531123  0.68931848  0.90225598    -0.33800
C2139       C  0.83749982  0.69764408  0.94475730     0.35450
C2140       C  0.84212463  0.66814842  0.96960904    -0.06730
C2141       C  0.83297692  0.63006793  0.95199648    -0.33700
C2142       C  0.82071695  0.62177837  0.90928299     0.35360
H2143       H  0.82282175  0.71283981  0.88331471     0.15730
O2144       O  0.84578397  0.73511802  0.96089906    -0.61200
H2145       H  0.83547742  0.60665401  0.97116472     0.15740
O2146       O  0.81175959  0.58427358  0.89295989    -0.61290
H2147       H  0.83481183  0.58399756  0.88365461     0.42740
H2148       H  0.82273216  0.73382087  0.97341174     0.42690
C2149       C  0.85117894  0.67343922  0.46192662    -0.06370
C2150       C  0.85148679  0.70631595  0.43811447    -0.33800
C2151       C  0.83282871  0.70051289  0.39978905     0.35450
C2152       C  0.81382000  0.66142440  0.38437930    -0.06730
C2153       C  0.81381939  0.62858457  0.40800501    -0.33700
C2154       C  0.83231626  0.63430672  0.44638806     0.35360
H2155       H  0.86574689  0.73662925  0.44963382     0.15730
O2156       O  0.83427120  0.73342025  0.37708367    -0.61200
H2157       H  0.79959963  0.59824433  0.39654039     0.15740
O2158       O  0.83031262  0.60117159  0.46937109    -0.61290
H2159       H  0.85413601  0.60186463  0.46370483     0.42740
H2160       H  0.85496874  0.74117950  0.35469472     0.42690
C2161       C  0.88864716  0.59667707  0.32206472    -0.06370
C2162       C  0.86529694  0.56842402  0.35493872    -0.33800
C2163       C  0.87566709  0.56558981  0.39775666     0.35450
C2164       C  0.90996411  0.59213093  0.41009757    -0.06730
C2165       C  0.93349637  0.62103605  0.37733615    -0.33700
C2166       C  0.92312320  0.62331482  0.33364459     0.35360
H2167       H  0.83852364  0.54759289  0.34733618     0.15730
O2168       O  0.85188351  0.53596179  0.42712309    -0.61200
H2169       H  0.96035215  0.64128500  0.38514410     0.15740
O2170       O  0.94679376  0.65166408  0.30286659    -0.61290
H2171       H  0.94274314  0.67589055  0.30721740     0.42740
H2172       H  0.85342104  0.51110198  0.41772132     0.42690
C2173       C  0.62399167  0.57291182  0.35838276    -0.06370
C2174       C  0.63075275  0.54228164  0.33918362    -0.33800
C2175       C  0.64907918  0.54839719  0.29641336     0.35450
C2176       C  0.66132136  0.58581511  0.27245335    -0.06730
C2177       C  0.65370267  0.61586530  0.29181366    -0.33700
C2178       C  0.63572388  0.60985568  0.33427110     0.35360
H2179       H  0.62117599  0.51334494  0.35684911     0.15730
O2180       O  0.65548091  0.51789250  0.27890600    -0.61200
H2181       H  0.66323866  0.64507490  0.27494876     0.15740
O2182       O  0.63033297  0.64080798  0.35253294    -0.61290
H2183       H  0.65177386  0.65634019  0.36898381     0.42740
H2184       H  0.63329387  0.50027615  0.26490056     0.42690
C2185       C  0.91068614  0.84919674  0.38960868    -0.06370
C2186       C  0.93491929  0.84320607  0.35913662    -0.33800
C2187       C  0.92410730  0.82554844  0.31743909     0.35450
C2188       C  0.88869832  0.81362219  0.30610724    -0.06730
C2189       C  0.86487643  0.81955246  0.33706805    -0.33700
C2190       C  0.87536949  0.83660703  0.37820997     0.35360
H2191       H  0.96250796  0.85389333  0.36666740     0.15730
O2192       O  0.94806022  0.81957837  0.28862777    -0.61200
H2193       H  0.83741553  0.81037775  0.32971018     0.15740
O2194       O  0.85067674  0.84099242  0.40744212    -0.61290
H2195       H  0.84711953  0.86355699  0.39448400     0.42740
H2196       H  0.96042600  0.84490257  0.27001743     0.42690
C2197       C  0.72354901  0.98407908  0.97517606    -0.06370
C2198       C  0.70378919  0.48409852  0.01510165    -0.33800
C2199       C  0.72082387  0.50187439  0.05358894     0.35450
C2200       C  0.75843725  0.52052197  0.05272575    -0.06730
C2201       C  0.77817685  0.02040532  0.01280526    -0.33700
C2202       C  0.76115735  0.00224838  0.97448870     0.35360
H2203       H  0.67487307  0.47012443  0.01668941     0.15730
O2204       O  0.70033279  0.50150024  0.09148192    -0.61200
H2205       H  0.80708761  0.03438320  0.01116376     0.15740
O2206       O  0.78168991  0.00227162  0.93674848    -0.61290
H2207       H  0.78623481  0.97839635  0.94087918     0.42740
H2208       H  0.69258896  0.47454832  0.10611670     0.42690
C2209       C  0.98008839  0.74336637  0.05758601    -0.06370
C2210       C  0.48843322  0.78075871  0.03611153    -0.33800
C2211       C  0.50071708  0.78884558  0.99041433     0.35450
C2212       C  0.50558470  0.75950391  0.96442639    -0.06730
C2213       C  0.99739593  0.72214356  0.98592392    -0.33700
C2214       C  0.98494040  0.71399906  0.03165090     0.35360
H2215       H  0.48474594  0.80387836  0.05463522     0.15730
O2216       O  0.50872600  0.82615372  0.97202957    -0.61200
H2217       H  0.00118137  0.69910219  0.96736334     0.15740
O2218       O  0.97673558  0.67667063  0.05011675    -0.61290
H2219       H  0.99927041  0.67903950  0.06150786     0.42740
H2220       H  0.48624819  0.82351225  0.96019642     0.42690
C2221       C  0.76052225  0.74526517  0.04260066    -0.06370
C2222       C  0.77897047  0.77824014  0.01211415    -0.33800
C2223       C  0.76328067  0.78328412  0.97386828     0.35450
C2224       C  0.72850359  0.75494881  0.96521482    -0.06730
C2225       C  0.71033451  0.72157991  0.99528636    -0.33700
C2226       C  0.72604865  0.71658760  0.03350515     0.35360
H2227       H  0.80553981  0.80064104  0.01834994     0.15730
O2228       O  0.78135871  0.81730123  0.94675905    -0.61200
H2229       H  0.68366131  0.69931429  0.98925988     0.15740
O2230       O  0.70795811  0.68272803  0.06075945    -0.61290
H2231       H  0.69565583  0.69101251  0.08511010     0.42740
H2232       H  0.79748839  0.81106106  0.92583903     0.42690
loop_ 
_geom_bond_atom_site_label_1 
_geom_bond_atom_site_label_2 
_geom_bond_distance 
_geom_bond_site_symmetry_2 
_ccdc_geom_bond_type 
N1            N2   1.315       .  A
N1            N7   1.316       .  A
N1          Mn30   2.178       .  S
N2            C9   1.350       .  A
N3            N5   1.326       .  A
N3            N4   1.325       .  A
N3          Mn19   2.205       .  S
N4           C10   1.348       .  A
N5            N6   1.326       .  A
N5          Mn30   2.209       .  S
N6           C10   1.349       .  A
N7            N8   1.313       .  A
N7          Mn19   2.179       .  S
N8            C9   1.349       .  A
C9          C466   1.459   1_554  S
C10         C535   1.508       .  S
N11          N17   1.316       .  A
N11          N12   1.313       .  A
N11         Mn41   2.197       .  S
N12          C20   1.346       .  A
N13          N14   1.321       .  A
N13          N15   1.314       .  A
N13         Mn19   2.211       .  S
N14          C21   1.350       .  A
N15          N16   1.327       .  A
N15         Mn41   2.212       .  S
N16          C21   1.360       .  A
N17          N18   1.332       .  A
N17         Mn19   2.227       .  S
N18          C20   1.363       .  A
Mn19        Cl43   2.535       .  S
C20         C514   1.490       .  S
C21         C547   1.491       .  S
N22          N23   1.334       .  A
N22          N28   1.317       .  A
N22         Mn30   2.242       .  S
N23          C31   1.366       .  A
N24          N26   1.313       .  A
N24          N25   1.323       .  A
N24         Mn42   2.181       .  S
N25          C32   1.355       .  A
N26          N27   1.320       .  A
N26         Mn30   2.216       .  S
N27          C32   1.352       .  A
N28          N29   1.313       .  A
N28         Mn42   2.190       .  S
N29          C31   1.343       .  A
Mn30        Cl43   2.532       .  S
C31         C487   1.494       .  S
C32         C526   1.489       .  S
N33          N34   1.320       .  A
N33          N39   1.322       .  A
N33         Mn41   2.208       .  S
N34          C44   1.351       .  A
N35          N36   1.313       .  A
N35          N37   1.313       .  A
N35         Mn42   2.168       .  S
N36          C45   1.347       .  A
N37          N38   1.320       .  A
N37         Mn41   2.200       .  S
N38          C45   1.354       .  A
N39          N40   1.322       .  A
N39         Mn42   2.191       .  S
N40          C44   1.348       .  A
Mn41        Cl43   2.531       .  S
Mn42        Cl43   2.544       .  S
C44         C502   1.492       .  S
C45         C478   1.469       .  S
N46          N47   1.333       .  A
N46          N52   1.317       .  A
N46         Mn75   2.249       .  S
N47          C54   1.365       .  A
N48          N50   1.315       .  A
N48          N49   1.328       .  A
N48         Mn64   2.213       .  S
N49          C55   1.360       .  A
N50          N51   1.320       .  A
N50         Mn75   2.210       .  S
N51          C55   1.350       .  A
N52          N53   1.317       .  A
N52         Mn64   2.197       .  S
N53          C54   1.344       .  A
C54         C427   1.490       .  S
C55         C391   1.497       .  S
N56          N62   1.323       .  A
N56          N57   1.322       .  A
N56         Mn86   2.212       .  S
N57          C65   1.351       .  A
N58          N59   1.316       .  A
N58          N60   1.314       .  A
N58         Mn64   2.186       .  S
N59          C66   1.351       .  A
N60          N61   1.316       .  A
N60         Mn86   2.179       .  S
N61          C66   1.350       .  A
N62          N63   1.323       .  A
N62         Mn64   2.198       .  S
N63          C65   1.348       .  A
Mn64        Cl88   2.539       .  S
C65         C442   1.492       .  S
C66         C475   1.467       .  S
N67          N68   1.317       .  A
N67          N73   1.315       .  A
N67         Mn75   2.192       .  S
N68          C76   1.353       .  A
N69          N71   1.326       .  A
N69          N70   1.324       .  A
N69         Mn87   2.204       .  S
N70          C77   1.347       .  A
N71          N72   1.326       .  A
N71         Mn75   2.209       .  S
N72          C77   1.350       .  A
N73          N74   1.310       .  A
N73         Mn87   2.163       .  S
N74          C76   1.347       .  A
Mn75        Cl88   2.538       .  S
C76         C463   1.459       .  S
C77         C406   1.506       .  S
N78          N79   1.319       .  A
N78          N84   1.316       .  A
N78         Mn86   2.212       .  S
N79          C89   1.348       .  A
N80          N81   1.319       .  A
N80          N82   1.314       .  A
N80         Mn87   2.206       .  S
N81          C90   1.350       .  A
N82          N83   1.328       .  A
N82         Mn86   2.219       .  S
N83          C90   1.361       .  A
N84          N85   1.326       .  A
N84         Mn87   2.200       .  S
N85          C89   1.355       .  A
Mn86        Cl88   2.539       .  S
Mn87        Cl88   2.533       .  S
C89         C451   1.477       .  S
C90         C418   1.497       .  S
N91          N92   1.307       .  A
N91          N97   1.314       .  A
N91        Mn120   2.120       .  S
N92          C99   1.336       .  A
N93          N95   1.328       .  A
N93          N94   1.323       .  A
N93        Mn109   2.209       .  S
N94         C100   1.347       .  A
N95          N96   1.330       .  A
N95        Mn120   2.212       .  S
N96         C100   1.349       .  A
N97          N98   1.314       .  A
N97        Mn109   2.183       .  S
N98          C99   1.349       .  A
C99         C331   1.417       .  S
C100        C430   1.508       .  S
N101        N107   1.314       .  A
N101        N102   1.313       .  A
N101       Mn131   2.183       .  S
N102        C110   1.343       .  A
N103        N104   1.313       .  A
N103        N105   1.316       .  A
N103       Mn109   2.196       .  S
N104        C111   1.344       .  A
N105        N106   1.330       .  A
N105       Mn131   2.218       .  S
N106        C111   1.362       .  A
N107        N108   1.330       .  A
N107       Mn109   2.223       .  S
N108        C110   1.363       .  A
Mn109      Cl133   2.508       .  S
C110        C382   1.481       .  S
C111        C454   1.481       .  S
N112        N113   1.330       .  A
N112        N118   1.313       .  A
N112       Mn120   2.199       .  S
N113        C121   1.361       .  A
N114        N116   1.314       .  A
N114        N115   1.330       .  A
N114       Mn132   2.214       .  S
N115        C122   1.364       .  A
N116        N117   1.315       .  A
N116       Mn120   2.200       .  S
N117        C122   1.346       .  A
N118        N119   1.309       .  A
N118       Mn132   2.184       .  S
N119        C121   1.342       .  A
Mn120      Cl133   2.549       .  S
C121        C358   1.470       .  S
C122        C439   1.493       .  S
N123        N124   1.326       .  A
N123        N129   1.325       .  A
N123       Mn131   2.202       .  S
N124        C134   1.349       .  A
N125        N126   1.310       .  A
N125        N127   1.315       .  A
N125       Mn132   2.169       .  S
N126        C135   1.343       .  A
N127        N128   1.317       .  A
N127       Mn131   2.168       .  S
N128        C135   1.348       .  A
N129        N130   1.323       .  A
N129       Mn132   2.199       .  S
N130        C134   1.347       .  A
Mn131      Cl133   2.553       .  S
Mn132      Cl133   2.507       .  S
C134        C370   1.503       .  S
C135        C343   1.440       .  S
N136        N137   1.325       .  A
N136        N142   1.314       .  A
N136       Mn165   2.192       .  S
N137        C144   1.357       .  A
N138        N140   1.316       .  A
N138        N139   1.331       .  A
N138       Mn154   2.223       .  S
N139        C145   1.363       .  A
N140        N141   1.314       .  A
N140       Mn165   2.202       .  S
N141        C145   1.346       .  A
N142        N143   1.322       .  A
N142       Mn154   2.229       .  S
N143        C144   1.353       .  A
C144        C550   1.492       .  S
C145        C307   1.492       .  S
N146        N152   1.327       .  A
N146        N147   1.324       .  A
N146       Mn176   2.205       .  S
N147        C155   1.347       .  A
N148        N149   1.308       .  A
N148        N150   1.318       .  A
N148       Mn154   2.160       .  S
N149        C156   1.342   1_556  A
N150        N151   1.318       .  A
N150       Mn176   2.200       .  S
N151        C156   1.351   1_556  A
N152        N153   1.327       .  A
N152       Mn154   2.210       .  S
N153        C155   1.350       .  A
Mn154      Cl178   2.538       .  S
C155        C538   1.509       .  S
C156        C346   1.454       .  S
N157        N158   1.312       .  A
N157        N163   1.311       .  A
N157       Mn165   2.153       .  S
N158        C166   1.347       .  A
N159        N161   1.324       .  A
N159        N160   1.323       .  A
N159       Mn177   2.198       .  S
N160        C167   1.347       .  A
N161        N162   1.323       .  A
N161       Mn165   2.215       .  S
N162        C167   1.349       .  A
N163        N164   1.307       .  A
N163       Mn177   2.134       .  S
N164        C166   1.342       .  A
Mn165      Cl178   2.531       .  S
C166        C334   1.433       .  S
C167        C319   1.486       .  S
N168        N169   1.321       .  A
N168        N174   1.311       .  A
N168       Mn176   2.220       .  S
N169        C179   1.353       .  A
N170        N171   1.315       .  A
N170        N172   1.316       .  A
N170       Mn177   2.194       .  S
N171        C180   1.344       .  A
N172        N173   1.338       .  A
N172       Mn176   2.265       .  S
N173        C180   1.371       .  A
N174        N175   1.321       .  A
N174       Mn177   2.169       .  S
N175        C179   1.354       .  A
Mn176      Cl178   2.525       .  S
Mn177      Cl178   2.541       .  S
C179        C523   1.487       .  S
C180        C298   1.512       .  S
N181        N182   1.325       .  A
N181        N187   1.313       .  A
N181       Mn210   2.200   1_556  S
N182        C189   1.359       .  A
N183        N185   1.314       .  A
N183        N184   1.328       .  A
N183       Mn199   2.202   1_554  S
N184        C190   1.360       .  A
N185        N186   1.311       .  A
N185      Mn1326   2.188   1_455  S
N186        C190   1.344       .  A
N187        N188   1.323       .  A
N187      Mn1315   2.226       .  S
N188        C189   1.353       .  A
C189        C415   1.496       .  S
C190        C355   1.481       .  S
N191        N197   1.327       .  A
N191        N192   1.326       .  A
N191       Mn221   2.215       .  S
N192        C200   1.350       .  A
N193       N1310   1.305       .  A
N193        N753   1.316       .  A
N193       Mn199   2.149       .  S
N194       N1309   1.305       .  A
N194        C201   1.342       .  A
N195        N196   1.317       .  A
N195        N751   1.316       .  A
N195       Mn221   2.181       .  S
N196       C1875   1.350       .  A
N197        N198   1.324       .  A
N197       Mn757   2.199   1_545  S
N198        C200   1.347       .  A
Mn199      N1303   2.226       .  S
Mn199       N755   2.199       .  S
Mn199      Cl781   2.528   1_556  S
C200        C403   1.506       .  S
C201       N1870   1.350       .  A
C201        C271   1.446       .  S
N202        N203   1.318       .  A
N202        N766   1.314       .  A
N202      Mn1326   2.172       .  S
N203        C769   1.347       .  A
N204        N206   1.324       .  A
N204        N205   1.323       .  A
N204       Mn780   2.200       .  S
N205        C212   1.348       .  A
N206        N207   1.321       .  A
N206       Mn210   2.204       .  S
N207        C212   1.350       .  A
N208        N209   1.312       .  A
N208        N760   1.314   1_545  A
N208      Mn1338   2.173       .  S
N209        C211   1.347   1_545  A
Mn210      N1301   2.188       .  S
Mn210      N1318   2.172       .  S
Mn210     Cl1897   2.540       .  S
C211        N761   1.347       .  A
C211        C283   1.444       .  S
C212        C379   1.495       .  S
N213        N214   1.322       .  A
N213        N219   1.314       .  A
N213      Mn1337   2.223       .  S
N214        C224   1.353       .  A
N215        N216   1.315       .  A
N215        N217   1.316       .  A
N215      Mn1338   2.194   1_455  S
N216        C225   1.345       .  A
N217        N218   1.334       .  A
N217       Mn221   2.249   1_554  S
N218        C225   1.368       .  A
N219        N220   1.325       .  A
N219       Mn222   2.201   1_556  S
N220        C224   1.358       .  A
Mn221      N1329   2.223       .  S
Mn221      Cl223   2.537   1_556  S
Mn222       N762   2.200   1_545  S
Mn222      N1324   2.173       .  S
Mn222      N1331   2.194       .  S
Mn222     Cl1339   2.530       .  S
Cl223      Mn757   2.528   1_544  S
Cl223     Mn1884   2.540   1_445  S
Cl223     Mn1338   2.530   1_455  S
C224        C394   1.498       .  S
C225        C367   1.502       .  S
N226        N227   1.316       .  A
N226       N1906   1.314       .  A
N226       Mn255   2.174   1_655  S
N227        C792   1.350       .  A
N228        N230   1.325       .  A
N228        N229   1.321       .  A
N228       Mn802   2.204   1_545  S
N229        C235   1.348       .  A
N230        N231   1.327       .  A
N230      Mn1371   2.197       .  S
N231        C235   1.348       .  A
N232        N233   1.314       .  A
N232       N1900   1.314       .  A
N232       Mn244   2.179       .  S
N233       C1350   1.347       .  A
C234        N785   1.350       .  A
C234       N1349   1.347       .  A
C234        C286   1.461       .  S
C235        C490   1.504       .  S
N236        N242   1.314       .  A
N236        N237   1.315       .  A
N236       Mn266   2.194       .  S
N237        C245   1.345       .  A
N238        N239   1.311       .  A
N238        N240   1.316       .  A
N238       Mn244   2.189       .  S
N239        C246   1.341       .  A
N240        N241   1.333       .  A
N240       Mn266   2.228       .  S
N241        C246   1.365       .  A
N242        N243   1.330       .  A
N242       Mn244   2.216       .  S
N243        C245   1.364       .  A
Mn244       N786   2.204       .  S
Mn244     Cl1942   2.517       .  S
C245        C322   1.494       .  S
C246        C511   1.482       .  S
N247        N248   1.332       .  A
N247        N253   1.315       .  A
N247       Mn255   2.220       .  S
N248        C256   1.363       .  A
N249        N251   1.315       .  A
N249        N250   1.329       .  A
N249       Mn267   2.213       .  S
N250        C257   1.362       .  A
N251        N252   1.313       .  A
N251       Mn255   2.188       .  S
N252        C257   1.343       .  A
N253        N254   1.313       .  A
N253       Mn267   2.190       .  S
N254        C256   1.342       .  A
Mn255      N1346   2.197   1_455  S
Mn255      Cl268   2.545   1_455  S
C256        C310   1.479       .  S
C257        C499   1.479       .  S
N258        N259   1.329       .  A
N258        N264   1.327       .  A
N258      Mn1382   2.208   1_455  S
N259        C269   1.349       .  A
N260        N261   1.310   1_565  A
N260       N1936   1.314   1_455  A
N260       Mn267   2.161   1_565  S
N261        C270   1.344   1_545  A
N262        N263   1.313       .  A
N262       N1934   1.314       .  A
N262       Mn266   2.155       .  S
N263       C1944   1.345       .  A
N264        N265   1.325       .  A
N264       Mn825   2.208       .  S
N265        C269   1.348       .  A
Mn266      N1374   2.208       .  S
Mn266     Cl1942   2.545       .  S
Mn267       N822   2.208   1_545  S
Mn267      Cl268   2.514   1_455  S
Cl268     Mn1918   2.517   1_545  S
Cl268     Mn1940   2.545   1_545  S
C269        C295   1.512       .  S
C270       N1937   1.345   1_455  A
C270        C274   1.431       .  S
C271       C1388   1.404       .  A
C271        C834   1.402       .  A
C272       C1387   1.404       .  A
C272        C831   1.380       .  A
C272        H277   1.082       .  S
C273        C274   1.397       .  A
C273        C830   1.380       .  A
C273        O836   1.373   1_455  S
C274       C1391   1.399   1_565  A
C275        C276   1.387       .  A
C275       C1390   1.399   1_545  A
C275        H279   1.085       .  S
C276        C829   1.402       .  A
C276        O280   1.371       .  S
O278        C831   1.373   1_655  S
O278        H282   0.991       .  S
O280        H281   0.990       .  S
C283        C288   1.402   1_665  A
C283       C1958   1.394       .  A
C284        C285   1.390       .  A
C284       C1957   1.394       .  A
C284        H289   1.084       .  S
C285       C1402   1.412       .  A
C285        O290   1.370       .  S
C286       C1401   1.412       .  A
C286        C845   1.401   1_655  A
C287        C288   1.388       .  A
C287        C844   1.401   1_445  A
C287        H291   1.084       .  S
C288        O292   1.371       .  S
O290        H294   0.990       .  S
O292        H293   0.989       .  S
C295        C296   1.417       .  A
C295        C300   1.410       .  A
C296        C297   1.420       .  A
C296        H301   1.083       .  S
C297        C298   1.412       .  A
C297        O302   1.370       .  S
C298        C299   1.413       .  A
C299        C300   1.406       .  A
C299        H303   1.083       .  S
C300        O304   1.372       .  S
O302        H306   0.992       .  S
O304        H305   0.992       .  S
C307        C308   1.410       .  A
C307        C312   1.414       .  A
C308        C309   1.414       .  A
C308        H313   1.083       .  S
C309        C310   1.411       .  A
C309        O314   1.370       .  S
C310        C311   1.399       .  A
C311        C312   1.394       .  A
C311        H315   1.085       .  S
C312        O316   1.373       .  S
O314       H1434   0.991       .  S
O316        H317   0.991       .  S
H318       O1430   0.991       .  S
C319        C320   1.397       .  A
C319        C324   1.417       .  A
C320        C321   1.402       .  A
C320        H325   1.084       .  S
C321        C322   1.420       .  A
C321        O326   1.372       .  S
C322        C323   1.402       .  A
C323        C324   1.407       .  A
C323        H327   1.084       .  S
C324        O328   1.372       .  S
O326        H330   0.992       .  S
O328        H329   0.992       .  S
C331        C332   1.392       .  A
C331        C336   1.395       .  A
C332        C333   1.383       .  A
C332        H337   1.082       .  S
C333        C334   1.404       .  A
C333        O338   1.371       .  S
C334        C335   1.400       .  A
C335        C336   1.377       .  A
C335        H339   1.084       .  S
C336        O340   1.371       .  S
O338        H342   0.992       .  S
O340        H341   0.992       .  S
C343        C344   1.390       .  A
C343        C348   1.405       .  A
C344        C345   1.383       .  A
C344        H349   1.085       .  S
C345        C346   1.412       .  A
C345        O350   1.368       .  S
C346        C347   1.397       .  A
C347        C348   1.390       .  A
C347        H351   1.084       .  S
C348        O352   1.371       .  S
O350        H354   0.991       .  S
O352        H353   0.992       .  S
C355        C356   1.409       .  A
C355        C360   1.411       .  A
C356        C357   1.411       .  A
C356        H361   1.083       .  S
C357        C358   1.409       .  A
C357        O362   1.372       .  S
C358        C359   1.398       .  A
C359        C360   1.387       .  A
C359        H363   1.085       .  S
C360        O364   1.373       .  S
O362        H366   0.991       .  S
O364        H365   0.992       .  S
C367        C368   1.409       .  A
C367        C372   1.410       .  A
C368        C369   1.402       .  A
C368        H373   1.083       .  S
C369        C370   1.410       .  A
C369        O374   1.372       .  S
C370        C371   1.414       .  A
C371        C372   1.415       .  A
C371        H375   1.083       .  S
C372        O376   1.369       .  S
O374        H378   0.992       .  S
O376        H377   0.992       .  S
C379        C380   1.407       .  A
C379        C384   1.417       .  A
C380        C381   1.397       .  A
C380        H385   1.083       .  S
C381        C382   1.409       .  A
C381        O386   1.373       .  S
C382        C383   1.404       .  A
C383        C384   1.411       .  A
C383        H387   1.083       .  S
C384        O388   1.372       .  S
O386        H390   0.992       .  S
O388        H389   0.992       .  S
C391        C392   1.409       .  A
C391        C396   1.411       .  A
C392        C393   1.405       .  A
C392        H397   1.083       .  S
C393        C394   1.411       .  A
C393        O398   1.371       .  S
C394        C395   1.409       .  A
C395        C396   1.408       .  A
C395        H399   1.083       .  S
C396        O400   1.371       .  S
O398        H402   0.992       .  S
O400        H401   0.992       .  S
C403        C404   1.411       .  A
C403        C408   1.415       .  A
C404        C405   1.410       .  A
C404        H409   1.084       .  S
C405        C406   1.415       .  A
C405        O410   1.372       .  S
C406        C407   1.410       .  A
C407        C408   1.409       .  A
C407        H411   1.083       .  S
C408        O412   1.372       .  S
O410        H414   0.992       .  S
O412        H413   0.992       .  S
C415        C416   1.404       .  A
C415        C420   1.415       .  A
C416        C417   1.404       .  A
C416        H421   1.083       .  S
C417        C418   1.415       .  A
C417        O422   1.372       .  S
C418        C419   1.405       .  A
C419        C420   1.410       .  A
C419        H423   1.083       .  S
C420        O424   1.372       .  S
O422        H426   0.992       .  S
O424        H425   0.991       .  S
C427        C428   1.399   1_545  A
C427        C432   1.412       .  A
C428        C987   1.408       .  A
C428        H433   1.084       .  S
C429        C430   1.420       .  A
C429        C986   1.408       .  A
C429        O434   1.376       .  S
C430        C431   1.410       .  A
C431        C990   1.416       .  A
C431        H435   1.083       .  S
C432        C989   1.416       .  A
C432        O436   1.371       .  S
O434        H438   0.991       .  S
O436        H437   0.992       .  S
C439        C440   1.409       .  A
C439        C444   1.410       .  A
C440       C1557   1.399       .  A
C440        H445   1.083       .  S
C441        C442   1.406       .  A
C441       C1556   1.399       .  A
C441        O446   1.370       .  S
C442        C443   1.412       .  A
C443       C1560   1.410       .  A
C443        H447   1.083       .  S
C444       C1559   1.410       .  A
C444        O448   1.371       .  S
O446        H450   0.992       .  S
O448        H449   0.992       .  S
C451        C452   1.396       .  A
C451        C456   1.411       .  A
C452        C453   1.399       .  A
C452        H457   1.084       .  S
C453        C454   1.415       .  A
C453        O458   1.370       .  S
C454        C455   1.400       .  A
C455        C456   1.406       .  A
C455        H459   1.083       .  S
C456        O460   1.369       .  S
O458        H462   0.992       .  S
O460        H461   0.992       .  S
C463        C464   1.402       .  A
C463        C468   1.405       .  A
C464        C465   1.385       .  A
C464        H469   1.083       .  S
C465        C466   1.407       .  A
C465        O470   1.372       .  S
C466        C467   1.404       .  A
C467        C468   1.392       .  A
C467        H471   1.083       .  S
C468        O472   1.371       .  S
O470        H474   0.992       .  S
O472        H473   0.991       .  S
C475        C476   1.401       .  A
C475        C480   1.409       .  A
C476        C477   1.393       .  A
C476        H481   1.084       .  S
C477        C478   1.407       .  A
C477        O482   1.367       .  S
C478        C479   1.403       .  A
C479        C480   1.391       .  A
C479        H483   1.084       .  S
C480        O484   1.370       .  S
O482        H486   0.991       .  S
O484        H485   0.989       .  S
C487        C488   1.404       .  A
C487        C492   1.410       .  A
C488        C489   1.396       .  A
C488        H493   1.084       .  S
C489        C490   1.411       .  A
C489        O494   1.369       .  S
C490        C491   1.415       .  A
C491        C492   1.416       .  A
C491        H495   1.083       .  S
C492        O496   1.371       .  S
O494        H498   0.992       .  S
O496        H497   0.992       .  S
C499        C500   1.402       .  A
C499        C504   1.407       .  A
C500        C501   1.409       .  A
C500        H505   1.083       .  S
C501        C502   1.417       .  A
C501        O506   1.370       .  S
C502        C503   1.404       .  A
C503        C504   1.395       .  A
C503        H507   1.081       .  S
C504        O508   1.372       .  S
O506        H510   0.991       .  S
O508        H509   0.992       .  S
C511        C512   1.409       .  A
C511        C516   1.407       .  A
C512        C513   1.417       .  A
C512        H517   1.083       .  S
C513        C514   1.413       .  A
C513        O518   1.371       .  S
C514        C515   1.404       .  A
C515        C516   1.392       .  A
C515        H519   1.084       .  S
C516        O520   1.374       .  S
O518        H522   0.992       .  S
O520        H521   0.992       .  S
C523        C528   1.411       .  A
C523       C1082   1.406   1_556  A
C524        C525   1.403   1_565  A
C524       C1081   1.406   1_554  A
C524        H529   1.084       .  S
C525        C526   1.411       .  A
C525        O530   1.370       .  S
C526       C1085   1.406       .  A
C527        C528   1.402   1_554  A
C527       C1084   1.406       .  A
C527        H531   1.083       .  S
C528        O532   1.371       .  S
O530        H534   0.991   1_545  S
O532        H533   0.992       .  S
C535        C540   1.417       .  A
C535       C1652   1.409       .  A
C536        C537   1.409   1_654  A
C536       C1651   1.409       .  A
C536        H541   1.083       .  S
C537        C538   1.417       .  A
C537        O542   1.371       .  S
C538       C1655   1.409   1_455  A
C539        C540   1.411   1_556  A
C539       C1654   1.409       .  A
C539        H543   1.083       .  S
C540        O544   1.371       .  S
O542        H546   0.992   1_455  S
O544        H545   0.992       .  S
C547        C548   1.406       .  A
C547        C552   1.409       .  A
C548        C549   1.406   1_554  A
C548        H553   1.084       .  S
C549        C550   1.411       .  A
C549        O554   1.371       .  S
C550        C551   1.407       .  A
C551        C552   1.406   1_556  A
C551        H555   1.084       .  S
C552        O556   1.370       .  S
O554        H558   0.992       .  S
O556        H557   0.990       .  S
N559        N560   1.315       .  A
N559        N565   1.316       .  A
N559       Mn588   2.178       .  S
N560        C567   1.350       .  A
N561        N563   1.326       .  A
N561        N562   1.325       .  A
N561       Mn577   2.205       .  S
N562        C568   1.348       .  A
N563        N564   1.326       .  A
N563       Mn588   2.209       .  S
N564        C568   1.349       .  A
N565        N566   1.313       .  A
N565       Mn577   2.179       .  S
N566        C567   1.349       .  A
C567       C1024   1.459   1_554  S
C568       C1093   1.508       .  S
N569        N575   1.316       .  A
N569        N570   1.313       .  A
N569       Mn599   2.197       .  S
N570        C578   1.346       .  A
N571        N572   1.321       .  A
N571        N573   1.314       .  A
N571       Mn577   2.211       .  S
N572        C579   1.350       .  A
N573        N574   1.327       .  A
N573       Mn599   2.212       .  S
N574        C579   1.360       .  A
N575        N576   1.332       .  A
N575       Mn577   2.227       .  S
N576        C578   1.363       .  A
Mn577      Cl601   2.535       .  S
C578       C1072   1.490       .  S
C579       C1105   1.491       .  S
N580        N581   1.334       .  A
N580        N586   1.317       .  A
N580       Mn588   2.242       .  S
N581        C589   1.366       .  A
N582        N584   1.313       .  A
N582        N583   1.323       .  A
N582       Mn600   2.181       .  S
N583        C590   1.355       .  A
N584        N585   1.320       .  A
N584       Mn588   2.216       .  S
N585        C590   1.352       .  A
N586        N587   1.313       .  A
N586       Mn600   2.190       .  S
N587        C589   1.343       .  A
Mn588      Cl601   2.532       .  S
C589       C1045   1.494       .  S
C590       C1084   1.489       .  S
N591        N592   1.320       .  A
N591        N597   1.322       .  A
N591       Mn599   2.208       .  S
N592        C602   1.351       .  A
N593        N594   1.313       .  A
N593        N595   1.313       .  A
N593       Mn600   2.168       .  S
N594        C603   1.347       .  A
N595        N596   1.320       .  A
N595       Mn599   2.200       .  S
N596        C603   1.354       .  A
N597        N598   1.322       .  A
N597       Mn600   2.191       .  S
N598        C602   1.348       .  A
Mn599      Cl601   2.531       .  S
Mn600      Cl601   2.544       .  S
C602       C1060   1.492       .  S
C603       C1036   1.469       .  S
N604        N605   1.333       .  A
N604        N610   1.317       .  A
N604       Mn633   2.249       .  S
N605        C612   1.365       .  A
N606        N608   1.315       .  A
N606        N607   1.328       .  A
N606       Mn622   2.213       .  S
N607        C613   1.360       .  A
N608        N609   1.320       .  A
N608       Mn633   2.210       .  S
N609        C613   1.350       .  A
N610        N611   1.317       .  A
N610       Mn622   2.197       .  S
N611        C612   1.344       .  A
C612        C985   1.490       .  S
C613        C949   1.497       .  S
N614        N620   1.323       .  A
N614        N615   1.322       .  A
N614       Mn644   2.212       .  S
N615        C623   1.351       .  A
N616        N617   1.316       .  A
N616        N618   1.314       .  A
N616       Mn622   2.186       .  S
N617        C624   1.351       .  A
N618        N619   1.316       .  A
N618       Mn644   2.179       .  S
N619        C624   1.350       .  A
N620        N621   1.323       .  A
N620       Mn622   2.198       .  S
N621        C623   1.348       .  A
Mn622      Cl646   2.539       .  S
C623       C1000   1.492       .  S
C624       C1033   1.467       .  S
N625        N626   1.317       .  A
N625        N631   1.315       .  A
N625       Mn633   2.192       .  S
N626        C634   1.353       .  A
N627        N629   1.326       .  A
N627        N628   1.324       .  A
N627       Mn645   2.204       .  S
N628        C635   1.347       .  A
N629        N630   1.326       .  A
N629       Mn633   2.209       .  S
N630        C635   1.350       .  A
N631        N632   1.310       .  A
N631       Mn645   2.163       .  S
N632        C634   1.347       .  A
Mn633      Cl646   2.538       .  S
C634       C1021   1.459       .  S
C635        C964   1.506       .  S
N636        N637   1.319       .  A
N636        N642   1.316       .  A
N636       Mn644   2.212       .  S
N637        C647   1.348       .  A
N638        N639   1.319       .  A
N638        N640   1.314       .  A
N638       Mn645   2.206       .  S
N639        C648   1.350       .  A
N640        N641   1.328       .  A
N640       Mn644   2.219       .  S
N641        C648   1.361       .  A
N642        N643   1.326       .  A
N642       Mn645   2.200       .  S
N643        C647   1.355       .  A
Mn644      Cl646   2.539       .  S
Mn645      Cl646   2.533       .  S
C647       C1009   1.477       .  S
C648        C976   1.497       .  S
N649        N650   1.307       .  A
N649        N655   1.314       .  A
N649       Mn678   2.120       .  S
N650        C657   1.336       .  A
N651        N653   1.328       .  A
N651        N652   1.323       .  A
N651       Mn667   2.209       .  S
N652        C658   1.347       .  A
N653        N654   1.330       .  A
N653       Mn678   2.212       .  S
N654        C658   1.349       .  A
N655        N656   1.314       .  A
N655       Mn667   2.183       .  S
N656        C657   1.349       .  A
C657        C889   1.417       .  S
C658        C988   1.508   1_565  S
N659        N665   1.314       .  A
N659        N660   1.313       .  A
N659       Mn689   2.183       .  S
N660        C668   1.343       .  A
N661        N662   1.313       .  A
N661        N663   1.316       .  A
N661       Mn667   2.196       .  S
N662        C669   1.344       .  A
N663        N664   1.330       .  A
N663       Mn689   2.218       .  S
N664        C669   1.362       .  A
N665        N666   1.330       .  A
N665       Mn667   2.223       .  S
N666        C668   1.363       .  A
Mn667      Cl691   2.508       .  S
C668        C940   1.481       .  S
C669       C1012   1.481       .  S
N670        N671   1.330       .  A
N670        N676   1.313       .  A
N670       Mn678   2.199       .  S
N671        C679   1.361       .  A
N672        N674   1.314       .  A
N672        N673   1.330       .  A
N672       Mn690   2.214       .  S
N673        C680   1.364       .  A
N674        N675   1.315       .  A
N674       Mn678   2.200       .  S
N675        C680   1.346       .  A
N676        N677   1.309       .  A
N676       Mn690   2.184       .  S
N677        C679   1.342       .  A
Mn678      Cl691   2.549       .  S
C679        C916   1.470       .  S
C680        C997   1.493       .  S
N681        N682   1.326       .  A
N681        N687   1.325       .  A
N681       Mn689   2.202       .  S
N682        C692   1.349       .  A
N683        N684   1.310       .  A
N683        N685   1.315       .  A
N683       Mn690   2.169       .  S
N684        C693   1.343       .  A
N685        N686   1.317       .  A
N685       Mn689   2.168       .  S
N686        C693   1.348       .  A
N687        N688   1.323       .  A
N687       Mn690   2.199       .  S
N688        C692   1.347       .  A
Mn689      Cl691   2.553       .  S
Mn690      Cl691   2.507       .  S
C692        C928   1.503       .  S
C693        C901   1.440       .  S
N694        N695   1.325       .  A
N694        N700   1.314       .  A
N694       Mn723   2.192       .  S
N695        C702   1.357       .  A
N696        N698   1.316       .  A
N696        N697   1.331       .  A
N696       Mn712   2.223       .  S
N697        C703   1.363       .  A
N698        N699   1.314       .  A
N698       Mn723   2.202       .  S
N699        C703   1.346       .  A
N700        N701   1.322       .  A
N700       Mn712   2.229       .  S
N701        C702   1.353       .  A
C702       C1108   1.492       .  S
C703        C865   1.492       .  S
N704        N710   1.327       .  A
N704        N705   1.324       .  A
N704       Mn734   2.205       .  S
N705        C713   1.347       .  A
N706        N707   1.308       .  A
N706        N708   1.318       .  A
N706       Mn712   2.160       .  S
N707        C714   1.342   1_556  A
N708        N709   1.318       .  A
N708       Mn734   2.200       .  S
N709        C714   1.351   1_556  A
N710        N711   1.327       .  A
N710       Mn712   2.210       .  S
N711        C713   1.350       .  A
Mn712      Cl736   2.538       .  S
C713       C1096   1.509       .  S
C714        C904   1.454       .  S
N715        N716   1.312       .  A
N715        N721   1.311       .  A
N715       Mn723   2.153       .  S
N716        C724   1.347       .  A
N717        N719   1.324       .  A
N717        N718   1.323       .  A
N717       Mn735   2.198       .  S
N718        C725   1.347       .  A
N719        N720   1.323       .  A
N719       Mn723   2.215       .  S
N720        C725   1.349       .  A
N721        N722   1.307       .  A
N721       Mn735   2.134       .  S
N722        C724   1.342       .  A
Mn723      Cl736   2.531       .  S
C724        C892   1.433       .  S
C725        C877   1.486       .  S
N726        N727   1.321       .  A
N726        N732   1.311       .  A
N726       Mn734   2.220       .  S
N727        C737   1.353       .  A
N728        N729   1.315       .  A
N728        N730   1.316       .  A
N728       Mn735   2.194       .  S
N729        C738   1.344       .  A
N730        N731   1.338       .  A
N730       Mn734   2.265       .  S
N731        C738   1.371       .  A
N732        N733   1.321       .  A
N732       Mn735   2.169       .  S
N733        C737   1.354       .  A
Mn734      Cl736   2.525       .  S
Mn735      Cl736   2.541       .  S
C737       C1081   1.487       .  S
C738        C856   1.512       .  S
N739        N740   1.325       .  A
N739        N745   1.313       .  A
N739       Mn768   2.200   1_556  S
N740        C747   1.359       .  A
N741        N743   1.314       .  A
N741        N742   1.328       .  A
N741       Mn757   2.202   1_554  S
N742        C748   1.360       .  A
N743        N744   1.311       .  A
N743      Mn1884   2.188   1_455  S
N744        C748   1.344       .  A
N745        N746   1.323       .  A
N745      Mn1873   2.226       .  S
N746        C747   1.353       .  A
C747        C973   1.496       .  S
C748        C913   1.481       .  S
N749        N755   1.327       .  A
N749        N750   1.326       .  A
N749       Mn779   2.215       .  S
N750        C758   1.350       .  A
N751       N1868   1.305   1_545  A
N751       Mn757   2.149   1_545  S
N752       N1867   1.305   1_565  A
N752        C759   1.342   1_565  A
N753        N754   1.317       .  A
N753       Mn779   2.181       .  S
N754       C1317   1.350       .  A
N755        N756   1.324       .  A
N756        C758   1.347       .  A
Mn757      N1861   2.226       .  S
C758        C961   1.506       .  S
C759       N1312   1.350       .  A
C759        C829   1.446       .  S
N760        N761   1.318       .  A
N760      Mn1884   2.172       .  S
N762        N764   1.324       .  A
N762        N763   1.323       .  A
N763        C770   1.348       .  A
N764        N765   1.321       .  A
N764       Mn768   2.204       .  S
N765        C770   1.350       .  A
N766        N767   1.312       .  A
N766      Mn1896   2.173       .  S
N767        C769   1.347       .  A
Mn768      N1859   2.188       .  S
Mn768      N1876   2.172       .  S
Mn768     Cl1339   2.540   1_565  S
C769        C841   1.444       .  S
C770        C937   1.495       .  S
N771        N772   1.322       .  A
N771        N777   1.314       .  A
N771      Mn1895   2.223       .  S
N772        C782   1.353       .  A
N773        N774   1.315       .  A
N773        N775   1.316       .  A
N773      Mn1896   2.194   1_455  S
N774        C783   1.345       .  A
N775        N776   1.334       .  A
N775       Mn779   2.249   1_554  S
N776        C783   1.368       .  A
N777        N778   1.325       .  A
N777       Mn780   2.201   1_556  S
N778        C782   1.358       .  A
Mn779      N1887   2.223       .  S
Mn779      Cl781   2.537   1_556  S
Mn780      N1882   2.173       .  S
Mn780      N1889   2.194       .  S
Mn780     Cl1897   2.530       .  S
Cl781     Mn1326   2.540   1_455  S
Cl781     Mn1896   2.530   1_455  S
C782        C952   1.498       .  S
C783        C925   1.502       .  S
N784        N785   1.316       .  A
N784       N1348   1.314       .  A
N784       Mn813   2.174   1_655  S
N786        N788   1.325       .  A
N786        N787   1.321       .  A
N787        C793   1.348       .  A
N788        N789   1.327       .  A
N788      Mn1929   2.197       .  S
N789        C793   1.348       .  A
N790       N1342   1.314       .  A
N790        N791   1.314   1_545  A
N790       Mn802   2.179   1_545  S
N791       C1908   1.347   1_565  A
C792       N1907   1.347   1_545  A
C792        C844   1.461   1_545  S
C793       C1048   1.504       .  S
N794        N800   1.314       .  A
N794        N795   1.315       .  A
N794       Mn824   2.194       .  S
N795        C803   1.345       .  A
N796        N797   1.311       .  A
N796        N798   1.316       .  A
N796       Mn802   2.189       .  S
N797        C804   1.341       .  A
N798        N799   1.333       .  A
N798       Mn824   2.228       .  S
N799        C804   1.365       .  A
N800        N801   1.330       .  A
N800       Mn802   2.216       .  S
N801        C803   1.364       .  A
Mn802     Cl1384   2.517   1_565  S
C803        C880   1.494       .  S
C804       C1069   1.482       .  S
N805        N806   1.332       .  A
N805        N811   1.315       .  A
N805       Mn813   2.220       .  S
N806        C814   1.363       .  A
N807        N809   1.315       .  A
N807        N808   1.329       .  A
N807       Mn825   2.213       .  S
N808        C815   1.362       .  A
N809        N810   1.313       .  A
N809       Mn813   2.188       .  S
N810        C815   1.343       .  A
N811        N812   1.313       .  A
N811       Mn825   2.190       .  S
N812        C814   1.342       .  A
Mn813      N1904   2.197   1_455  S
Mn813      Cl826   2.545   1_455  S
C814        C868   1.479       .  S
C815       C1057   1.479       .  S
N816        N817   1.329       .  A
N816        N822   1.327       .  A
N816      Mn1940   2.208   1_455  S
N817        C827   1.349       .  A
N818        N819   1.310       .  A
N818       N1378   1.314   1_455  A
N818       Mn825   2.161       .  S
N819        C828   1.344       .  A
N820       N1376   1.314       .  A
N820        N821   1.313       .  A
N820       Mn824   2.155       .  S
N821       C1386   1.345       .  A
N822        N823   1.325       .  A
N823        C827   1.348       .  A
Mn824      N1932   2.208       .  S
Mn824     Cl1384   2.545   1_565  S
Mn825      Cl826   2.514   1_455  S
Cl826     Mn1360   2.517       .  S
Cl826     Mn1382   2.545       .  S
C827        C853   1.512       .  S
C828       N1379   1.345   1_455  A
C828        C832   1.431       .  S
C829       C1946   1.404   1_545  A
C830       C1945   1.404   1_565  A
C830        H835   1.082       .  S
C831        C832   1.397       .  A
C832       C1949   1.399       .  A
C833       C1948   1.399       .  A
C833        C834   1.387       .  A
C833        H837   1.085       .  S
C834        O838   1.371       .  S
O836        H840   0.991       .  S
O838        H839   0.990       .  S
C841       C1400   1.394       .  A
C841        C846   1.402   1_655  A
C842       C1399   1.394       .  A
C842        C843   1.390       .  A
C842        H847   1.084       .  S
C843       C1960   1.412       .  A
C843        O848   1.370       .  S
C844       C1959   1.412       .  A
C845        C846   1.388       .  A
C845        H849   1.084       .  S
C846        O850   1.371       .  S
O848        H852   0.990       .  S
O850        H851   0.989       .  S
C853        C854   1.417       .  A
C853        C858   1.410       .  A
C854        C855   1.420       .  A
C854        H859   1.083       .  S
C855        C856   1.412       .  A
C855        O860   1.370       .  S
C856        C857   1.413       .  A
C857        C858   1.406       .  A
C857        H861   1.083       .  S
C858        O862   1.372       .  S
O860        H864   0.992       .  S
O862        H863   0.992       .  S
C865        C866   1.410       .  A
C865        C870   1.414       .  A
C866        C867   1.414       .  A
C866        H871   1.083       .  S
C867        C868   1.411       .  A
C867        O872   1.370       .  S
C868        C869   1.399       .  A
C869        C870   1.394       .  A
C869        H873   1.085       .  S
C870        O874   1.373       .  S
O872       H1992   0.991       .  S
O874        H875   0.991       .  S
H876       O1988   0.991       .  S
C877        C878   1.397       .  A
C877        C882   1.417       .  A
C878        C879   1.402       .  A
C878        H883   1.084       .  S
C879        C880   1.420       .  A
C879        O884   1.372       .  S
C880        C881   1.402       .  A
C881        C882   1.407       .  A
C881        H885   1.084       .  S
C882        O886   1.372       .  S
O884        H888   0.992       .  S
O886        H887   0.992       .  S
C889        C890   1.392       .  A
C889        C894   1.395       .  A
C890        C891   1.383       .  A
C890        H895   1.082       .  S
C891        C892   1.404       .  A
C891        O896   1.371       .  S
C892        C893   1.400       .  A
C893        C894   1.377       .  A
C893        H897   1.084       .  S
C894        O898   1.371       .  S
O896        H900   0.992       .  S
O898        H899   0.992       .  S
C901        C902   1.390       .  A
C901        C906   1.405       .  A
C902        C903   1.383       .  A
C902        H907   1.085       .  S
C903        C904   1.412       .  A
C903        O908   1.368       .  S
C904        C905   1.397       .  A
C905        C906   1.390       .  A
C905        H909   1.084       .  S
C906        O910   1.371       .  S
O908        H912   0.991       .  S
O910        H911   0.992       .  S
C913        C914   1.409       .  A
C913        C918   1.411       .  A
C914        C915   1.411       .  A
C914        H919   1.083       .  S
C915        C916   1.409       .  A
C915        O920   1.372       .  S
C916        C917   1.398       .  A
C917        C918   1.387       .  A
C917        H921   1.085       .  S
C918        O922   1.373       .  S
O920        H924   0.991       .  S
O922        H923   0.992       .  S
C925        C926   1.409       .  A
C925        C930   1.410       .  A
C926        C927   1.402       .  A
C926        H931   1.083       .  S
C927        C928   1.410       .  A
C927        O932   1.372       .  S
C928        C929   1.414       .  A
C929        C930   1.415       .  A
C929        H933   1.083       .  S
C930        O934   1.369       .  S
O932        H936   0.992       .  S
O934        H935   0.992       .  S
C937        C938   1.407       .  A
C937        C942   1.417       .  A
C938        C939   1.397       .  A
C938        H943   1.083       .  S
C939        C940   1.409       .  A
C939        O944   1.373       .  S
C940        C941   1.404       .  A
C941        C942   1.411       .  A
C941        H945   1.083       .  S
C942        O946   1.372       .  S
O944        H948   0.992       .  S
O946        H947   0.992   1_565  S
C949        C950   1.409       .  A
C949        C954   1.411       .  A
C950        C951   1.405       .  A
C950        H955   1.083       .  S
C951        C952   1.411       .  A
C951        O956   1.371       .  S
C952        C953   1.409       .  A
C953        C954   1.408       .  A
C953        H957   1.083       .  S
C954        O958   1.371       .  S
O956        H960   0.992       .  S
O958        H959   0.992       .  S
C961        C962   1.411       .  A
C961        C966   1.415       .  A
C962        C963   1.410       .  A
C962        H967   1.084       .  S
C963        C964   1.415       .  A
C963        O968   1.372       .  S
C964        C965   1.410       .  A
C965        C966   1.409       .  A
C965        H969   1.083       .  S
C966        O970   1.372       .  S
O968        H972   0.992       .  S
O970        H971   0.992       .  S
C973        C974   1.404       .  A
C973        C978   1.415       .  A
C974        C975   1.404       .  A
C974        H979   1.083       .  S
C975        C976   1.415       .  A
C975        O980   1.372       .  S
C976        C977   1.405       .  A
C977        C978   1.410       .  A
C977        H981   1.083       .  S
C978        O982   1.372       .  S
O980        H984   0.992       .  S
O982        H983   0.991       .  S
C985        C986   1.399       .  A
C985        C990   1.412       .  A
C986        H991   1.084       .  S
C987        C988   1.420   1_565  A
C987        O992   1.376       .  S
C988        C989   1.410       .  A
C989        H993   1.083       .  S
C990        O994   1.371       .  S
O992        H996   0.991       .  S
O994        H995   0.992       .  S
C997        C998   1.409       .  A
C997       C1002   1.410       .  A
C998       C2115   1.399       .  A
C998       H1003   1.083       .  S
C999       C2114   1.399       .  A
C999       C1000   1.406       .  A
C999       O1004   1.370       .  S
C1000      C1001   1.412       .  A
C1001      C2118   1.410       .  A
C1001      H1005   1.083       .  S
C1002      C2117   1.410       .  A
C1002      O1006   1.371       .  S
O1004      H1008   0.992       .  S
O1006      H1007   0.992       .  S
C1009      C1010   1.396       .  A
C1009      C1014   1.411       .  A
C1010      C1011   1.399       .  A
C1010      H1015   1.084       .  S
C1011      C1012   1.415       .  A
C1011      O1016   1.370       .  S
C1012      C1013   1.400       .  A
C1013      C1014   1.406       .  A
C1013      H1017   1.083       .  S
C1014      O1018   1.369       .  S
O1016      H1020   0.992       .  S
O1018      H1019   0.992       .  S
C1021      C1022   1.402       .  A
C1021      C1026   1.405       .  A
C1022      C1023   1.385       .  A
C1022      H1027   1.083       .  S
C1023      C1024   1.407       .  A
C1023      O1028   1.372       .  S
C1024      C1025   1.404       .  A
C1025      C1026   1.392       .  A
C1025      H1029   1.083       .  S
C1026      O1030   1.371       .  S
O1028      H1032   0.992       .  S
O1030      H1031   0.991       .  S
C1033      C1034   1.401       .  A
C1033      C1038   1.409       .  A
C1034      C1035   1.393       .  A
C1034      H1039   1.084       .  S
C1035      C1036   1.407       .  A
C1035      O1040   1.367       .  S
C1036      C1037   1.403       .  A
C1037      C1038   1.391       .  A
C1037      H1041   1.084       .  S
C1038      O1042   1.370       .  S
O1040      H1044   0.991       .  S
O1042      H1043   0.989       .  S
C1045      C1046   1.404       .  A
C1045      C1050   1.410       .  A
C1046      C1047   1.396       .  A
C1046      H1051   1.084       .  S
C1047      C1048   1.411       .  A
C1047      O1052   1.369       .  S
C1048      C1049   1.415       .  A
C1049      C1050   1.416       .  A
C1049      H1053   1.083       .  S
C1050      O1054   1.371       .  S
O1052      H1056   0.992       .  S
O1054      H1055   0.992       .  S
C1057      C1058   1.402       .  A
C1057      C1062   1.407       .  A
C1058      C1059   1.409       .  A
C1058      H1063   1.083       .  S
C1059      C1060   1.417       .  A
C1059      O1064   1.370       .  S
C1060      C1061   1.404       .  A
C1061      C1062   1.395       .  A
C1061      H1065   1.081       .  S
C1062      O1066   1.372       .  S
O1064      H1068   0.991       .  S
O1066      H1067   0.992       .  S
C1069      C1070   1.409       .  A
C1069      C1074   1.407       .  A
C1070      C1071   1.417       .  A
C1070      H1075   1.083       .  S
C1071      C1072   1.413       .  A
C1071      O1076   1.371       .  S
C1072      C1073   1.404       .  A
C1073      C1074   1.392       .  A
C1073      H1077   1.084       .  S
C1074      O1078   1.374       .  S
O1076      H1080   0.992       .  S
O1078      H1079   0.992       .  S
C1081      C1086   1.411   1_565  A
C1082      C1083   1.403       .  A
C1082      H1087   1.084       .  S
C1083      C1084   1.411       .  A
C1083      O1088   1.370       .  S
C1085      C1086   1.402   1_554  A
C1085      H1089   1.083       .  S
C1086      O1090   1.371       .  S
O1088      H1092   0.991       .  S
O1090      H1091   0.992   1_545  S
C1093      C2210   1.409       .  A
C1093      C1098   1.417       .  A
C1094      C2209   1.409       .  A
C1094      C1095   1.409   1_654  A
C1094      H1099   1.083       .  S
C1095      C1096   1.417       .  A
C1095      O1100   1.371       .  S
C1096      C2213   1.409   1_455  A
C1097      C2212   1.409       .  A
C1097      C1098   1.411   1_556  A
C1097      H1101   1.083       .  S
C1098      O1102   1.371       .  S
O1100      H1104   0.992   1_455  S
O1102      H1103   0.992       .  S
C1105      C1106   1.406       .  A
C1105      C1110   1.409       .  A
C1106      C1107   1.406   1_554  A
C1106      H1111   1.084       .  S
C1107      C1108   1.411       .  A
C1107      O1112   1.371       .  S
C1108      C1109   1.407       .  A
C1109      C1110   1.406   1_556  A
C1109      H1113   1.084       .  S
C1110      O1114   1.370       .  S
O1112      H1116   0.992       .  S
O1114      H1115   0.990       .  S
N1117      N1118   1.315       .  A
N1117      N1123   1.316       .  A
N1117     Mn1146   2.178       .  S
N1118      C1125   1.350       .  A
N1119      N1121   1.326       .  A
N1119      N1120   1.325       .  A
N1119     Mn1135   2.205       .  S
N1120      C1126   1.348       .  A
N1121      N1122   1.326       .  A
N1121     Mn1146   2.209       .  S
N1122      C1126   1.349       .  A
N1123      N1124   1.313       .  A
N1123     Mn1135   2.179       .  S
N1124      C1125   1.349       .  A
C1125      C1582   1.459   1_554  S
C1126      C1651   1.508       .  S
N1127      N1133   1.316       .  A
N1127      N1128   1.313       .  A
N1127     Mn1157   2.197       .  S
N1128      C1136   1.346       .  A
N1129      N1130   1.321       .  A
N1129      N1131   1.314       .  A
N1129     Mn1135   2.211       .  S
N1130      C1137   1.350       .  A
N1131      N1132   1.327       .  A
N1131     Mn1157   2.212       .  S
N1132      C1137   1.360       .  A
N1133      N1134   1.332       .  A
N1133     Mn1135   2.227       .  S
N1134      C1136   1.363       .  A
Mn1135    Cl1159   2.535       .  S
C1136      C1630   1.490       .  S
C1137      C1663   1.491       .  S
N1138      N1139   1.334       .  A
N1138      N1144   1.317       .  A
N1138     Mn1146   2.242       .  S
N1139      C1147   1.366       .  A
N1140      N1142   1.313       .  A
N1140      N1141   1.323       .  A
N1140     Mn1158   2.181       .  S
N1141      C1148   1.355       .  A
N1142      N1143   1.320       .  A
N1142     Mn1146   2.216       .  S
N1143      C1148   1.352       .  A
N1144      N1145   1.313       .  A
N1144     Mn1158   2.190       .  S
N1145      C1147   1.343       .  A
Mn1146    Cl1159   2.532       .  S
C1147      C1603   1.494       .  S
C1148      C1642   1.489       .  S
N1149      N1150   1.320       .  A
N1149      N1155   1.322       .  A
N1149     Mn1157   2.208       .  S
N1150      C1160   1.351       .  A
N1151      N1152   1.313       .  A
N1151      N1153   1.313       .  A
N1151     Mn1158   2.168       .  S
N1152      C1161   1.347       .  A
N1153      N1154   1.320       .  A
N1153     Mn1157   2.200       .  S
N1154      C1161   1.354       .  A
N1155      N1156   1.322       .  A
N1155     Mn1158   2.191       .  S
N1156      C1160   1.348       .  A
Mn1157    Cl1159   2.531       .  S
Mn1158    Cl1159   2.544       .  S
C1160      C1618   1.492       .  S
C1161      C1594   1.469       .  S
N1162      N1163   1.333       .  A
N1162      N1168   1.317       .  A
N1162     Mn1191   2.249       .  S
N1163      C1170   1.365       .  A
N1164      N1166   1.315       .  A
N1164      N1165   1.328       .  A
N1164     Mn1180   2.213       .  S
N1165      C1171   1.360       .  A
N1166      N1167   1.320       .  A
N1166     Mn1191   2.210       .  S
N1167      C1171   1.350       .  A
N1168      N1169   1.317       .  A
N1168     Mn1180   2.197       .  S
N1169      C1170   1.344       .  A
C1170      C1543   1.490       .  S
C1171      C1507   1.497       .  S
N1172      N1178   1.323       .  A
N1172      N1173   1.322       .  A
N1172     Mn1202   2.212       .  S
N1173      C1181   1.351       .  A
N1174      N1175   1.316       .  A
N1174      N1176   1.314       .  A
N1174     Mn1180   2.186       .  S
N1175      C1182   1.351       .  A
N1176      N1177   1.316       .  A
N1176     Mn1202   2.179       .  S
N1177      C1182   1.350       .  A
N1178      N1179   1.323       .  A
N1178     Mn1180   2.198       .  S
N1179      C1181   1.348       .  A
Mn1180    Cl1204   2.539       .  S
C1181      C1558   1.492   1_655  S
C1182      C1591   1.467       .  S
N1183      N1184   1.317       .  A
N1183      N1189   1.315       .  A
N1183     Mn1191   2.192       .  S
N1184      C1192   1.353       .  A
N1185      N1187   1.326       .  A
N1185      N1186   1.324       .  A
N1185     Mn1203   2.204       .  S
N1186      C1193   1.347       .  A
N1187      N1188   1.326       .  A
N1187     Mn1191   2.209       .  S
N1188      C1193   1.350       .  A
N1189      N1190   1.310       .  A
N1189     Mn1203   2.163       .  S
N1190      C1192   1.347       .  A
Mn1191    Cl1204   2.538       .  S
C1192      C1579   1.459       .  S
C1193      C1522   1.506       .  S
N1194      N1195   1.319       .  A
N1194      N1200   1.316       .  A
N1194     Mn1202   2.212       .  S
N1195      C1205   1.348       .  A
N1196      N1197   1.319       .  A
N1196      N1198   1.314       .  A
N1196     Mn1203   2.206       .  S
N1197      C1206   1.350       .  A
N1198      N1199   1.328       .  A
N1198     Mn1202   2.219       .  S
N1199      C1206   1.361       .  A
N1200      N1201   1.326       .  A
N1200     Mn1203   2.200       .  S
N1201      C1205   1.355       .  A
Mn1202    Cl1204   2.539       .  S
Mn1203    Cl1204   2.533       .  S
C1205      C1567   1.477       .  S
C1206      C1534   1.497       .  S
N1207      N1208   1.307       .  A
N1207      N1213   1.314       .  A
N1207     Mn1236   2.120       .  S
N1208      C1215   1.336       .  A
N1209      N1211   1.328       .  A
N1209      N1210   1.323       .  A
N1209     Mn1225   2.209       .  S
N1210      C1216   1.347       .  A
N1211      N1212   1.330       .  A
N1211     Mn1236   2.212       .  S
N1212      C1216   1.349       .  A
N1213      N1214   1.314       .  A
N1213     Mn1225   2.183       .  S
N1214      C1215   1.349       .  A
C1215      C1447   1.417       .  S
C1216      C1546   1.508       .  S
N1217      N1223   1.314       .  A
N1217      N1218   1.313       .  A
N1217     Mn1247   2.183       .  S
N1218      C1226   1.343       .  A
N1219      N1220   1.313       .  A
N1219      N1221   1.316       .  A
N1219     Mn1225   2.196       .  S
N1220      C1227   1.344       .  A
N1221      N1222   1.330       .  A
N1221     Mn1247   2.218       .  S
N1222      C1227   1.362       .  A
N1223      N1224   1.330       .  A
N1223     Mn1225   2.223       .  S
N1224      C1226   1.363       .  A
Mn1225    Cl1249   2.508       .  S
C1226      C1498   1.481       .  S
C1227      C1570   1.481       .  S
N1228      N1229   1.330       .  A
N1228      N1234   1.313       .  A
N1228     Mn1236   2.199       .  S
N1229      C1237   1.361       .  A
N1230      N1232   1.314       .  A
N1230      N1231   1.330       .  A
N1230     Mn1248   2.214       .  S
N1231      C1238   1.364       .  A
N1232      N1233   1.315       .  A
N1232     Mn1236   2.200       .  S
N1233      C1238   1.346       .  A
N1234      N1235   1.309       .  A
N1234     Mn1248   2.184       .  S
N1235      C1237   1.342       .  A
Mn1236    Cl1249   2.549       .  S
C1237      C1474   1.470       .  S
C1238      C1555   1.493       .  S
N1239      N1240   1.326       .  A
N1239      N1245   1.325       .  A
N1239     Mn1247   2.202       .  S
N1240      C1250   1.349       .  A
N1241      N1242   1.310       .  A
N1241      N1243   1.315       .  A
N1241     Mn1248   2.169       .  S
N1242      C1251   1.343       .  A
N1243      N1244   1.317       .  A
N1243     Mn1247   2.168       .  S
N1244      C1251   1.348       .  A
N1245      N1246   1.323       .  A
N1245     Mn1248   2.199       .  S
N1246      C1250   1.347       .  A
Mn1247    Cl1249   2.553       .  S
Mn1248    Cl1249   2.507       .  S
C1250      C1486   1.503       .  S
C1251      C1459   1.440       .  S
N1252      N1253   1.325       .  A
N1252      N1258   1.314       .  A
N1252     Mn1281   2.192       .  S
N1253      C1260   1.357       .  A
N1254      N1256   1.316       .  A
N1254      N1255   1.331       .  A
N1254     Mn1270   2.223       .  S
N1255      C1261   1.363       .  A
N1256      N1257   1.314       .  A
N1256     Mn1281   2.202       .  S
N1257      C1261   1.346       .  A
N1258      N1259   1.322       .  A
N1258     Mn1270   2.229       .  S
N1259      C1260   1.353       .  A
C1260      C1666   1.492       .  S
C1261      C1423   1.492       .  S
N1262      N1268   1.327       .  A
N1262      N1263   1.324       .  A
N1262     Mn1292   2.205       .  S
N1263      C1271   1.347       .  A
N1264      N1265   1.308       .  A
N1264      N1266   1.318       .  A
N1264     Mn1270   2.160       .  S
N1265      C1272   1.342   1_556  A
N1266      N1267   1.318       .  A
N1266     Mn1292   2.200       .  S
N1267      C1272   1.351   1_556  A
N1268      N1269   1.327       .  A
N1268     Mn1270   2.210       .  S
N1269      C1271   1.350       .  A
Mn1270    Cl1294   2.538       .  S
C1271      C1654   1.509       .  S
C1272      C1462   1.454       .  S
N1273      N1274   1.312       .  A
N1273      N1279   1.311       .  A
N1273     Mn1281   2.153       .  S
N1274      C1282   1.347       .  A
N1275      N1277   1.324       .  A
N1275      N1276   1.323       .  A
N1275     Mn1293   2.198       .  S
N1276      C1283   1.347       .  A
N1277      N1278   1.323       .  A
N1277     Mn1281   2.215       .  S
N1278      C1283   1.349       .  A
N1279      N1280   1.307       .  A
N1279     Mn1293   2.134       .  S
N1280      C1282   1.342       .  A
Mn1281    Cl1294   2.531       .  S
C1282      C1450   1.433       .  S
C1283      C1435   1.486       .  S
N1284      N1285   1.321       .  A
N1284      N1290   1.311       .  A
N1284     Mn1292   2.220       .  S
N1285      C1295   1.353       .  A
N1286      N1287   1.315       .  A
N1286      N1288   1.316       .  A
N1286     Mn1293   2.194       .  S
N1287      C1296   1.344       .  A
N1288      N1289   1.338       .  A
N1288     Mn1292   2.265       .  S
N1289      C1296   1.371       .  A
N1290      N1291   1.321       .  A
N1290     Mn1293   2.169       .  S
N1291      C1295   1.354       .  A
Mn1292    Cl1294   2.525       .  S
Mn1293    Cl1294   2.541       .  S
C1295      C1639   1.487       .  S
C1296      C1414   1.512       .  S
N1297      N1298   1.325       .  A
N1297      N1303   1.313   1_655  A
N1297     Mn1326   2.200   1_556  S
N1298      C1305   1.359       .  A
N1299      N1301   1.314       .  A
N1299      N1300   1.328       .  A
N1299     Mn1315   2.202   1_554  S
N1300      C1306   1.360       .  A
N1301      N1302   1.311       .  A
N1302      C1306   1.344       .  A
N1303      N1304   1.323       .  A
N1304      C1305   1.353   1_455  A
C1305      C1531   1.496       .  S
C1306      C1471   1.481       .  S
N1307      N1313   1.327       .  A
N1307      N1308   1.326       .  A
N1307     Mn1337   2.215       .  S
N1308      C1316   1.350       .  A
N1309      N1869   1.316       .  A
N1309     Mn1315   2.149       .  S
N1310      C1317   1.342       .  A
N1311      N1867   1.316       .  A
N1311      N1312   1.317       .  A
N1311     Mn1337   2.181       .  S
N1313      N1314   1.324       .  A
N1313     Mn1873   2.199   1_545  S
N1314      C1316   1.347       .  A
Mn1315     N1871   2.199       .  S
Mn1315    Cl1897   2.528   1_556  S
C1316      C1519   1.506       .  S
C1317      C1387   1.446       .  S
N1318      N1319   1.318       .  A
N1318      N1882   1.314       .  A
N1319      C1885   1.347       .  A
N1320      N1322   1.324       .  A
N1320      N1321   1.323       .  A
N1320     Mn1896   2.200       .  S
N1321      C1328   1.348       .  A
N1322      N1323   1.321       .  A
N1322     Mn1326   2.204       .  S
N1323      C1328   1.350       .  A
N1324      N1876   1.314   1_545  A
N1324      N1325   1.312       .  A
N1325      C1327   1.347   1_545  A
C1327      N1877   1.347       .  A
C1327      C1399   1.444       .  S
C1328      C1495   1.495       .  S
N1329      N1330   1.322       .  A
N1329      N1335   1.314   1_455  A
N1330      C1340   1.353   1_455  A
N1331      N1332   1.315       .  A
N1331      N1333   1.316       .  A
N1332      C1341   1.345       .  A
N1333      N1334   1.334       .  A
N1333     Mn1337   2.249   1_554  S
N1334      C1341   1.368       .  A
N1335      N1336   1.325       .  A
N1335     Mn1338   2.201   1_556  S
N1336      C1340   1.358       .  A
Mn1337    Cl1339   2.537   1_556  S
Mn1338     N1878   2.200   1_545  S
Cl1339    Mn1873   2.528   1_544  S
C1340      C1510   1.498       .  S
C1341      C1483   1.502       .  S
N1342      N1343   1.316       .  A
N1342     Mn1371   2.174       .  S
N1343      C1908   1.350       .  A
N1344      N1346   1.325       .  A
N1344      N1345   1.321       .  A
N1344     Mn1918   2.204   1_545  S
N1345      C1351   1.348       .  A
N1346      N1347   1.327       .  A
N1347      C1351   1.348       .  A
N1348      N1349   1.314       .  A
N1348     Mn1360   2.179       .  S
C1350      N1901   1.350       .  A
C1350      C1402   1.461       .  S
C1351      C1606   1.504       .  S
N1352      N1358   1.314       .  A
N1352      N1353   1.315       .  A
N1352     Mn1382   2.194       .  S
N1353      C1361   1.345       .  A
N1354      N1355   1.311       .  A
N1354      N1356   1.316       .  A
N1354     Mn1360   2.189       .  S
N1355      C1362   1.341       .  A
N1356      N1357   1.333       .  A
N1356     Mn1382   2.228       .  S
N1357      C1362   1.365       .  A
N1358      N1359   1.330       .  A
N1358     Mn1360   2.216       .  S
N1359      C1361   1.364       .  A
Mn1360     N1902   2.204       .  S
C1361      C1438   1.494       .  S
C1362      C1627   1.482       .  S
N1363      N1364   1.332       .  A
N1363      N1369   1.315       .  A
N1363     Mn1371   2.220       .  S
N1364      C1372   1.363       .  A
N1365      N1367   1.315       .  A
N1365      N1366   1.329       .  A
N1365     Mn1383   2.213       .  S
N1366      C1373   1.362       .  A
N1367      N1368   1.313       .  A
N1367     Mn1371   2.188       .  S
N1368      C1373   1.343       .  A
N1369      N1370   1.313       .  A
N1369     Mn1383   2.190       .  S
N1370      C1372   1.342       .  A
Mn1371    Cl1384   2.545       .  S
C1372      C1426   1.479       .  S
C1373      C1615   1.479       .  S
N1374      N1375   1.329       .  A
N1374      N1380   1.327       .  A
N1375      C1385   1.349       .  A
N1376      N1377   1.310   1_565  A
N1376     Mn1383   2.161   1_565  S
N1377      C1386   1.344   1_545  A
N1378      N1379   1.313       .  A
N1378     Mn1382   2.155       .  S
N1380      N1381   1.325       .  A
N1380     Mn1941   2.208       .  S
N1381      C1385   1.348       .  A
Mn1383     N1938   2.208   1_545  S
Mn1383    Cl1384   2.514       .  S
C1385      C1411   1.512       .  S
C1386      C1390   1.431       .  S
C1387      C1950   1.402       .  A
C1388      C1947   1.380       .  A
C1388      H1393   1.082       .  S
C1389      C1946   1.380       .  A
C1389      C1390   1.397       .  A
C1389      O1952   1.373       .  S
C1391      C1392   1.387       .  A
C1391      H1395   1.085       .  S
C1392      C1945   1.402       .  A
C1392      O1396   1.371       .  S
O1394      C1947   1.373       .  S
O1394      H1398   0.991       .  S
O1396      H1397   0.990       .  S
C1399      C1404   1.402   1_565  A
C1400      C1401   1.390       .  A
C1400      H1405   1.084       .  S
C1401      O1406   1.370       .  S
C1402      C1961   1.401       .  A
C1403      C1960   1.401   1_545  A
C1403      C1404   1.388       .  A
C1403      H1407   1.084       .  S
C1404      O1408   1.371       .  S
O1406      H1410   0.990       .  S
O1408      H1409   0.989       .  S
C1411      C1412   1.417       .  A
C1411      C1416   1.410       .  A
C1412      C1413   1.420       .  A
C1412      H1417   1.083       .  S
C1413      C1414   1.412       .  A
C1413      O1418   1.370       .  S
C1414      C1415   1.413       .  A
C1415      C1416   1.406       .  A
C1415      H1419   1.083       .  S
C1416      O1420   1.372       .  S
O1418      H1422   0.992       .  S
O1420      H1421   0.992       .  S
C1423      C1424   1.410       .  A
C1423      C1428   1.414       .  A
C1424      C1425   1.414       .  A
C1424      H1429   1.083       .  S
C1425      C1426   1.411       .  A
C1425      O1430   1.370       .  S
C1426      C1427   1.399       .  A
C1427      C1428   1.394       .  A
C1427      H1431   1.085       .  S
C1428      O1432   1.373       .  S
O1432      H1433   0.991       .  S
C1435      C1436   1.397       .  A
C1435      C1440   1.417       .  A
C1436      C1437   1.402       .  A
C1436      H1441   1.084       .  S
C1437      C1438   1.420       .  A
C1437      O1442   1.372       .  S
C1438      C1439   1.402       .  A
C1439      C1440   1.407       .  A
C1439      H1443   1.084       .  S
C1440      O1444   1.372       .  S
O1442      H1446   0.992       .  S
O1444      H1445   0.992       .  S
C1447      C1448   1.392       .  A
C1447      C1452   1.395       .  A
C1448      C1449   1.383       .  A
C1448      H1453   1.082       .  S
C1449      C1450   1.404       .  A
C1449      O1454   1.371       .  S
C1450      C1451   1.400       .  A
C1451      C1452   1.377       .  A
C1451      H1455   1.084       .  S
C1452      O1456   1.371       .  S
O1454      H1458   0.992       .  S
O1456      H1457   0.992       .  S
C1459      C1460   1.390       .  A
C1459      C1464   1.405       .  A
C1460      C1461   1.383       .  A
C1460      H1465   1.085       .  S
C1461      C1462   1.412       .  A
C1461      O1466   1.368       .  S
C1462      C1463   1.397       .  A
C1463      C1464   1.390       .  A
C1463      H1467   1.084       .  S
C1464      O1468   1.371       .  S
O1466      H1470   0.991       .  S
O1468      H1469   0.992       .  S
C1471      C1472   1.409       .  A
C1471      C1476   1.411       .  A
C1472      C1473   1.411       .  A
C1472      H1477   1.083       .  S
C1473      C1474   1.409       .  A
C1473      O1478   1.372       .  S
C1474      C1475   1.398       .  A
C1475      C1476   1.387       .  A
C1475      H1479   1.085       .  S
C1476      O1480   1.373       .  S
O1478      H1482   0.991       .  S
O1480      H1481   0.992       .  S
C1483      C1484   1.409       .  A
C1483      C1488   1.410       .  A
C1484      C1485   1.402       .  A
C1484      H1489   1.083       .  S
C1485      C1486   1.410       .  A
C1485      O1490   1.372       .  S
C1486      C1487   1.414       .  A
C1487      C1488   1.415       .  A
C1487      H1491   1.083       .  S
C1488      O1492   1.369       .  S
O1490      H1494   0.992       .  S
O1492      H1493   0.992       .  S
C1495      C1496   1.407       .  A
C1495      C1500   1.417       .  A
C1496      C1497   1.397       .  A
C1496      H1501   1.083       .  S
C1497      C1498   1.409       .  A
C1497      O1502   1.373       .  S
C1498      C1499   1.404       .  A
C1499      C1500   1.411       .  A
C1499      H1503   1.083       .  S
C1500      O1504   1.372       .  S
O1502      H1506   0.992       .  S
O1504      H1505   0.992       .  S
C1507      C1508   1.409       .  A
C1507      C1512   1.411       .  A
C1508      C1509   1.405       .  A
C1508      H1513   1.083       .  S
C1509      C1510   1.411       .  A
C1509      O1514   1.371       .  S
C1510      C1511   1.409       .  A
C1511      C1512   1.408       .  A
C1511      H1515   1.083       .  S
C1512      O1516   1.371       .  S
O1514      H1518   0.992       .  S
O1516      H1517   0.992       .  S
C1519      C1520   1.411       .  A
C1519      C1524   1.415       .  A
C1520      C1521   1.410       .  A
C1520      H1525   1.084       .  S
C1521      C1522   1.415       .  A
C1521      O1526   1.372       .  S
C1522      C1523   1.410       .  A
C1523      C1524   1.409       .  A
C1523      H1527   1.083       .  S
C1524      O1528   1.372       .  S
O1526      H1530   0.992       .  S
O1528      H1529   0.992       .  S
C1531      C1532   1.404       .  A
C1531      C1536   1.415       .  A
C1532      C1533   1.404       .  A
C1532      H1537   1.083       .  S
C1533      C1534   1.415       .  A
C1533      O1538   1.372       .  S
C1534      C1535   1.405       .  A
C1535      C1536   1.410       .  A
C1535      H1539   1.083       .  S
C1536      O1540   1.372   1_655  S
O1538      H1542   0.992       .  S
O1540      H1541   0.991       .  S
C1543      C1544   1.399   1_545  A
C1543      C1548   1.412       .  A
C1544      C2103   1.408       .  A
C1544      H1549   1.084       .  S
C1545      C2102   1.408       .  A
C1545      C1546   1.420       .  A
C1545      O1550   1.376       .  S
C1546      C1547   1.410       .  A
C1547      C2106   1.416       .  A
C1547      H1551   1.083       .  S
C1548      C2105   1.416       .  A
C1548      O1552   1.371       .  S
O1550      H1554   0.991       .  S
O1552      H1553   0.992       .  S
C1555      C1556   1.409       .  A
C1555      C1560   1.410       .  A
C1556      H1561   1.083       .  S
C1557      C1558   1.406       .  A
C1557      O1562   1.370       .  S
C1558      C1559   1.412       .  A
C1559      H1563   1.083   1_455  S
C1560      O1564   1.371       .  S
O1562      H1566   0.992       .  S
O1564      H1565   0.992       .  S
C1567      C1568   1.396       .  A
C1567      C1572   1.411       .  A
C1568      C1569   1.399       .  A
C1568      H1573   1.084       .  S
C1569      C1570   1.415       .  A
C1569      O1574   1.370       .  S
C1570      C1571   1.400       .  A
C1571      C1572   1.406       .  A
C1571      H1575   1.083       .  S
C1572      O1576   1.369       .  S
O1574      H1578   0.992       .  S
O1576      H1577   0.992       .  S
C1579      C1580   1.402       .  A
C1579      C1584   1.405       .  A
C1580      C1581   1.385       .  A
C1580      H1585   1.083       .  S
C1581      C1582   1.407       .  A
C1581      O1586   1.372       .  S
C1582      C1583   1.404       .  A
C1583      C1584   1.392       .  A
C1583      H1587   1.083       .  S
C1584      O1588   1.371       .  S
O1586      H1590   0.992       .  S
O1588      H1589   0.991       .  S
C1591      C1592   1.401       .  A
C1591      C1596   1.409       .  A
C1592      C1593   1.393       .  A
C1592      H1597   1.084       .  S
C1593      C1594   1.407       .  A
C1593      O1598   1.367       .  S
C1594      C1595   1.403       .  A
C1595      C1596   1.391       .  A
C1595      H1599   1.084       .  S
C1596      O1600   1.370       .  S
O1598      H1602   0.991       .  S
O1600      H1601   0.989       .  S
C1603      C1604   1.404       .  A
C1603      C1608   1.410       .  A
C1604      C1605   1.396       .  A
C1604      H1609   1.084       .  S
C1605      C1606   1.411       .  A
C1605      O1610   1.369       .  S
C1606      C1607   1.415       .  A
C1607      C1608   1.416       .  A
C1607      H1611   1.083       .  S
C1608      O1612   1.371       .  S
O1610      H1614   0.992       .  S
O1612      H1613   0.992       .  S
C1615      C1616   1.402       .  A
C1615      C1620   1.407       .  A
C1616      C1617   1.409       .  A
C1616      H1621   1.083       .  S
C1617      C1618   1.417       .  A
C1617      O1622   1.370       .  S
C1618      C1619   1.404       .  A
C1619      C1620   1.395       .  A
C1619      H1623   1.081       .  S
C1620      O1624   1.372       .  S
O1622      H1626   0.991       .  S
O1624      H1625   0.992       .  S
C1627      C1628   1.409       .  A
C1627      C1632   1.407       .  A
C1628      C1629   1.417       .  A
C1628      H1633   1.083       .  S
C1629      C1630   1.413       .  A
C1629      O1634   1.371       .  S
C1630      C1631   1.404       .  A
C1631      C1632   1.392       .  A
C1631      H1635   1.084       .  S
C1632      O1636   1.374       .  S
O1634      H1638   0.992       .  S
O1636      H1637   0.992       .  S
C1639      C2198   1.406   1_556  A
C1639      C1644   1.411       .  A
C1640      C2197   1.406   1_554  A
C1640      C1641   1.403   1_565  A
C1640      H1645   1.084       .  S
C1641      C1642   1.411       .  A
C1641      O1646   1.370       .  S
C1642      C2201   1.406       .  A
C1643      C2200   1.406       .  A
C1643      C1644   1.402   1_554  A
C1643      H1647   1.083       .  S
C1644      O1648   1.371       .  S
O1646      H1650   0.991   1_545  S
O1648      H1649   0.992       .  S
C1651      C1656   1.417       .  A
C1652      C1653   1.409   1_554  A
C1652      H1657   1.083       .  S
C1653      C1654   1.417       .  A
C1653      O1658   1.371       .  S
C1655      C1656   1.411   1_556  A
C1655      H1659   1.083   1_655  S
C1656      O1660   1.371       .  S
O1658      H1662   0.992       .  S
O1660      H1661   0.992       .  S
C1663      C1664   1.406       .  A
C1663      C1668   1.409       .  A
C1664      C1665   1.406   1_554  A
C1664      H1669   1.084       .  S
C1665      C1666   1.411       .  A
C1665      O1670   1.371       .  S
C1666      C1667   1.407       .  A
C1667      C1668   1.406   1_556  A
C1667      H1671   1.084       .  S
C1668      O1672   1.370       .  S
O1670      H1674   0.992       .  S
O1672      H1673   0.990       .  S
N1675      N1676   1.315       .  A
N1675      N1681   1.316       .  A
N1675     Mn1704   2.178       .  S
N1676      C1683   1.350       .  A
N1677      N1679   1.326       .  A
N1677      N1678   1.325       .  A
N1677     Mn1693   2.205       .  S
N1678      C1684   1.348       .  A
N1679      N1680   1.326       .  A
N1679     Mn1704   2.209       .  S
N1680      C1684   1.349       .  A
N1681      N1682   1.313       .  A
N1681     Mn1693   2.179       .  S
N1682      C1683   1.349       .  A
C1683      C2140   1.459   1_554  S
C1684      C2209   1.508       .  S
N1685      N1691   1.316       .  A
N1685      N1686   1.313       .  A
N1685     Mn1715   2.197       .  S
N1686      C1694   1.346       .  A
N1687      N1688   1.321       .  A
N1687      N1689   1.314       .  A
N1687     Mn1693   2.211       .  S
N1688      C1695   1.350       .  A
N1689      N1690   1.327       .  A
N1689     Mn1715   2.212       .  S
N1690      C1695   1.360       .  A
N1691      N1692   1.332       .  A
N1691     Mn1693   2.227       .  S
N1692      C1694   1.363       .  A
Mn1693    Cl1717   2.535       .  S
C1694      C2188   1.490       .  S
C1695      C2221   1.491       .  S
N1696      N1697   1.334       .  A
N1696      N1702   1.317       .  A
N1696     Mn1704   2.242       .  S
N1697      C1705   1.366       .  A
N1698      N1700   1.313       .  A
N1698      N1699   1.323       .  A
N1698     Mn1716   2.181       .  S
N1699      C1706   1.355       .  A
N1700      N1701   1.320       .  A
N1700     Mn1704   2.216       .  S
N1701      C1706   1.352       .  A
N1702      N1703   1.313       .  A
N1702     Mn1716   2.190       .  S
N1703      C1705   1.343       .  A
Mn1704    Cl1717   2.532       .  S
C1705      C2161   1.494       .  S
C1706      C2200   1.489       .  S
N1707      N1708   1.320       .  A
N1707      N1713   1.322       .  A
N1707     Mn1715   2.208       .  S
N1708      C1718   1.351       .  A
N1709      N1710   1.313       .  A
N1709      N1711   1.313       .  A
N1709     Mn1716   2.168       .  S
N1710      C1719   1.347       .  A
N1711      N1712   1.320       .  A
N1711     Mn1715   2.200       .  S
N1712      C1719   1.354       .  A
N1713      N1714   1.322       .  A
N1713     Mn1716   2.191       .  S
N1714      C1718   1.348       .  A
Mn1715    Cl1717   2.531       .  S
Mn1716    Cl1717   2.544       .  S
C1718      C2176   1.492       .  S
C1719      C2152   1.469       .  S
N1720      N1721   1.333       .  A
N1720      N1726   1.317       .  A
N1720     Mn1749   2.249       .  S
N1721      C1728   1.365       .  A
N1722      N1724   1.315       .  A
N1722      N1723   1.328       .  A
N1722     Mn1738   2.213       .  S
N1723      C1729   1.360       .  A
N1724      N1725   1.320       .  A
N1724     Mn1749   2.210       .  S
N1725      C1729   1.350       .  A
N1726      N1727   1.317       .  A
N1726     Mn1738   2.197       .  S
N1727      C1728   1.344       .  A
C1728      C2101   1.490       .  S
C1729      C2065   1.497       .  S
N1730      N1736   1.323       .  A
N1730      N1731   1.322       .  A
N1730     Mn1760   2.212       .  S
N1731      C1739   1.351       .  A
N1732      N1733   1.316       .  A
N1732      N1734   1.314       .  A
N1732     Mn1738   2.186       .  S
N1733      C1740   1.351       .  A
N1734      N1735   1.316       .  A
N1734     Mn1760   2.179       .  S
N1735      C1740   1.350       .  A
N1736      N1737   1.323       .  A
N1736     Mn1738   2.198       .  S
N1737      C1739   1.348       .  A
Mn1738    Cl1762   2.539       .  S
C1739      C2116   1.492   1_655  S
C1740      C2149   1.467       .  S
N1741      N1742   1.317       .  A
N1741      N1747   1.315       .  A
N1741     Mn1749   2.192       .  S
N1742      C1750   1.353       .  A
N1743      N1745   1.326       .  A
N1743      N1744   1.324       .  A
N1743     Mn1761   2.204       .  S
N1744      C1751   1.347       .  A
N1745      N1746   1.326       .  A
N1745     Mn1749   2.209       .  S
N1746      C1751   1.350       .  A
N1747      N1748   1.310       .  A
N1747     Mn1761   2.163       .  S
N1748      C1750   1.347       .  A
Mn1749    Cl1762   2.538       .  S
C1750      C2137   1.459       .  S
C1751      C2080   1.506       .  S
N1752      N1753   1.319       .  A
N1752      N1758   1.316       .  A
N1752     Mn1760   2.212       .  S
N1753      C1763   1.348       .  A
N1754      N1755   1.319       .  A
N1754      N1756   1.314       .  A
N1754     Mn1761   2.206       .  S
N1755      C1764   1.350       .  A
N1756      N1757   1.328       .  A
N1756     Mn1760   2.219       .  S
N1757      C1764   1.361       .  A
N1758      N1759   1.326       .  A
N1758     Mn1761   2.200       .  S
N1759      C1763   1.355       .  A
Mn1760    Cl1762   2.539       .  S
Mn1761    Cl1762   2.533       .  S
C1763      C2125   1.477       .  S
C1764      C2092   1.497       .  S
N1765      N1766   1.307       .  A
N1765      N1771   1.314       .  A
N1765     Mn1794   2.120       .  S
N1766      C1773   1.336       .  A
N1767      N1769   1.328       .  A
N1767      N1768   1.323       .  A
N1767     Mn1783   2.209       .  S
N1768      C1774   1.347       .  A
N1769      N1770   1.330       .  A
N1769     Mn1794   2.212       .  S
N1770      C1774   1.349       .  A
N1771      N1772   1.314       .  A
N1771     Mn1783   2.183       .  S
N1772      C1773   1.349       .  A
C1773      C2005   1.417       .  S
C1774      C2104   1.508   1_565  S
N1775      N1781   1.314       .  A
N1775      N1776   1.313       .  A
N1775     Mn1805   2.183       .  S
N1776      C1784   1.343       .  A
N1777      N1778   1.313       .  A
N1777      N1779   1.316       .  A
N1777     Mn1783   2.196       .  S
N1778      C1785   1.344       .  A
N1779      N1780   1.330       .  A
N1779     Mn1805   2.218       .  S
N1780      C1785   1.362       .  A
N1781      N1782   1.330       .  A
N1781     Mn1783   2.223       .  S
N1782      C1784   1.363       .  A
Mn1783    Cl1807   2.508       .  S
C1784      C2056   1.481       .  S
C1785      C2128   1.481       .  S
N1786      N1787   1.330       .  A
N1786      N1792   1.313       .  A
N1786     Mn1794   2.199       .  S
N1787      C1795   1.361       .  A
N1788      N1790   1.314       .  A
N1788      N1789   1.330       .  A
N1788     Mn1806   2.214       .  S
N1789      C1796   1.364       .  A
N1790      N1791   1.315       .  A
N1790     Mn1794   2.200       .  S
N1791      C1796   1.346       .  A
N1792      N1793   1.309       .  A
N1792     Mn1806   2.184       .  S
N1793      C1795   1.342       .  A
Mn1794    Cl1807   2.549       .  S
C1795      C2032   1.470       .  S
C1796      C2113   1.493       .  S
N1797      N1798   1.326       .  A
N1797      N1803   1.325       .  A
N1797     Mn1805   2.202       .  S
N1798      C1808   1.349       .  A
N1799      N1800   1.310       .  A
N1799      N1801   1.315       .  A
N1799     Mn1806   2.169       .  S
N1800      C1809   1.343       .  A
N1801      N1802   1.317       .  A
N1801     Mn1805   2.168       .  S
N1802      C1809   1.348       .  A
N1803      N1804   1.323       .  A
N1803     Mn1806   2.199       .  S
N1804      C1808   1.347       .  A
Mn1805    Cl1807   2.553       .  S
Mn1806    Cl1807   2.507       .  S
C1808      C2044   1.503       .  S
C1809      C2017   1.440       .  S
N1810      N1811   1.325       .  A
N1810      N1816   1.314       .  A
N1810     Mn1839   2.192       .  S
N1811      C1818   1.357       .  A
N1812      N1814   1.316       .  A
N1812      N1813   1.331       .  A
N1812     Mn1828   2.223       .  S
N1813      C1819   1.363       .  A
N1814      N1815   1.314       .  A
N1814     Mn1839   2.202       .  S
N1815      C1819   1.346       .  A
N1816      N1817   1.322       .  A
N1816     Mn1828   2.229       .  S
N1817      C1818   1.353       .  A
C1818      C2224   1.492       .  S
C1819      C1981   1.492       .  S
N1820      N1826   1.327       .  A
N1820      N1821   1.324       .  A
N1820     Mn1850   2.205       .  S
N1821      C1829   1.347       .  A
N1822      N1823   1.308       .  A
N1822      N1824   1.318       .  A
N1822     Mn1828   2.160       .  S
N1823      C1830   1.342   1_556  A
N1824      N1825   1.318       .  A
N1824     Mn1850   2.200       .  S
N1825      C1830   1.351   1_556  A
N1826      N1827   1.327       .  A
N1826     Mn1828   2.210       .  S
N1827      C1829   1.350       .  A
Mn1828    Cl1852   2.538       .  S
C1829      C2212   1.509       .  S
C1830      C2020   1.454       .  S
N1831      N1832   1.312       .  A
N1831      N1837   1.311       .  A
N1831     Mn1839   2.153       .  S
N1832      C1840   1.347       .  A
N1833      N1835   1.324       .  A
N1833      N1834   1.323       .  A
N1833     Mn1851   2.198       .  S
N1834      C1841   1.347       .  A
N1835      N1836   1.323       .  A
N1835     Mn1839   2.215       .  S
N1836      C1841   1.349       .  A
N1837      N1838   1.307       .  A
N1837     Mn1851   2.134       .  S
N1838      C1840   1.342       .  A
Mn1839    Cl1852   2.531       .  S
C1840      C2008   1.433       .  S
C1841      C1993   1.486       .  S
N1842      N1843   1.321       .  A
N1842      N1848   1.311       .  A
N1842     Mn1850   2.220       .  S
N1843      C1853   1.353       .  A
N1844      N1845   1.315       .  A
N1844      N1846   1.316       .  A
N1844     Mn1851   2.194       .  S
N1845      C1854   1.344       .  A
N1846      N1847   1.338       .  A
N1846     Mn1850   2.265       .  S
N1847      C1854   1.371       .  A
N1848      N1849   1.321       .  A
N1848     Mn1851   2.169       .  S
N1849      C1853   1.354       .  A
Mn1850    Cl1852   2.525       .  S
Mn1851    Cl1852   2.541       .  S
C1853      C2197   1.487       .  S
C1854      C1972   1.512       .  S
N1855      N1856   1.325       .  A
N1855      N1861   1.313   1_655  A
N1855     Mn1884   2.200   1_556  S
N1856      C1863   1.359       .  A
N1857      N1859   1.314       .  A
N1857      N1858   1.328       .  A
N1857     Mn1873   2.202   1_554  S
N1858      C1864   1.360       .  A
N1859      N1860   1.311       .  A
N1860      C1864   1.344       .  A
N1861      N1862   1.323       .  A
N1862      C1863   1.353   1_455  A
C1863      C2089   1.496       .  S
C1864      C2029   1.481       .  S
N1865      N1871   1.327       .  A
N1865      N1866   1.326       .  A
N1865     Mn1895   2.215       .  S
N1866      C1874   1.350       .  A
N1867     Mn1873   2.149   1_545  S
N1868      C1875   1.342   1_565  A
N1869      N1870   1.317       .  A
N1869     Mn1895   2.181       .  S
N1871      N1872   1.324       .  A
N1872      C1874   1.347       .  A
C1874      C2077   1.506       .  S
C1875      C1945   1.446       .  S
N1876      N1877   1.318       .  A
N1878      N1880   1.324       .  A
N1878      N1879   1.323       .  A
N1879      C1886   1.348       .  A
N1880      N1881   1.321       .  A
N1880     Mn1884   2.204       .  S
N1881      C1886   1.350       .  A
N1882      N1883   1.312       .  A
N1883      C1885   1.347       .  A
C1885      C1957   1.444       .  S
C1886      C2053   1.495       .  S
N1887      N1888   1.322       .  A
N1887      N1893   1.314   1_455  A
N1888      C1898   1.353   1_455  A
N1889      N1890   1.315       .  A
N1889      N1891   1.316       .  A
N1890      C1899   1.345       .  A
N1891      N1892   1.334       .  A
N1891     Mn1895   2.249   1_554  S
N1892      C1899   1.368       .  A
N1893      N1894   1.325       .  A
N1893     Mn1896   2.201   1_556  S
N1894      C1898   1.358       .  A
Mn1895    Cl1897   2.537   1_556  S
C1898      C2068   1.498       .  S
C1899      C2041   1.502       .  S
N1900      N1901   1.316       .  A
N1900     Mn1929   2.174       .  S
N1902      N1904   1.325       .  A
N1902      N1903   1.321       .  A
N1903      C1909   1.348       .  A
N1904      N1905   1.327       .  A
N1905      C1909   1.348       .  A
N1906      N1907   1.314   1_545  A
N1906     Mn1918   2.179   1_545  S
C1908      C1960   1.461   1_545  S
C1909      C2164   1.504       .  S
N1910      N1916   1.314       .  A
N1910      N1911   1.315       .  A
N1910     Mn1940   2.194       .  S
N1911      C1919   1.345       .  A
N1912      N1913   1.311       .  A
N1912      N1914   1.316       .  A
N1912     Mn1918   2.189       .  S
N1913      C1920   1.341       .  A
N1914      N1915   1.333       .  A
N1914     Mn1940   2.228       .  S
N1915      C1920   1.365       .  A
N1916      N1917   1.330       .  A
N1916     Mn1918   2.216       .  S
N1917      C1919   1.364       .  A
C1919      C1996   1.494       .  S
C1920      C2185   1.482       .  S
N1921      N1922   1.332       .  A
N1921      N1927   1.315       .  A
N1921     Mn1929   2.220       .  S
N1922      C1930   1.363       .  A
N1923      N1925   1.315       .  A
N1923      N1924   1.329       .  A
N1923     Mn1941   2.213       .  S
N1924      C1931   1.362       .  A
N1925      N1926   1.313       .  A
N1925     Mn1929   2.188       .  S
N1926      C1931   1.343       .  A
N1927      N1928   1.313       .  A
N1927     Mn1941   2.190       .  S
N1928      C1930   1.342       .  A
Mn1929    Cl1942   2.545       .  S
C1930      C1984   1.479       .  S
C1931      C2173   1.479       .  S
N1932      N1933   1.329       .  A
N1932      N1938   1.327       .  A
N1933      C1943   1.349       .  A
N1934      N1935   1.310       .  A
N1934     Mn1941   2.161       .  S
N1935      C1944   1.344       .  A
N1936      N1937   1.313       .  A
N1936     Mn1940   2.155       .  S
N1938      N1939   1.325       .  A
N1939      C1943   1.348       .  A
Mn1941    Cl1942   2.514       .  S
C1943      C1969   1.512       .  S
C1944      C1948   1.431       .  S
C1946      H1951   1.082       .  S
C1947      C1948   1.397       .  A
C1949      C1950   1.387       .  A
C1949      H1953   1.085       .  S
C1950      O1954   1.371       .  S
O1952      H1956   0.991       .  S
O1954      H1955   0.990       .  S
C1957      C1962   1.402       .  A
C1958      C1959   1.390       .  A
C1958      H1963   1.084       .  S
C1959      O1964   1.370       .  S
C1961      C1962   1.388       .  A
C1961      H1965   1.084       .  S
C1962      O1966   1.371       .  S
O1964      H1968   0.990       .  S
O1966      H1967   0.989       .  S
C1969      C1970   1.417       .  A
C1969      C1974   1.410       .  A
C1970      C1971   1.420       .  A
C1970      H1975   1.083       .  S
C1971      C1972   1.412       .  A
C1971      O1976   1.370       .  S
C1972      C1973   1.413       .  A
C1973      C1974   1.406       .  A
C1973      H1977   1.083       .  S
C1974      O1978   1.372       .  S
O1976      H1980   0.992       .  S
O1978      H1979   0.992       .  S
C1981      C1982   1.410       .  A
C1981      C1986   1.414       .  A
C1982      C1983   1.414       .  A
C1982      H1987   1.083       .  S
C1983      C1984   1.411       .  A
C1983      O1988   1.370       .  S
C1984      C1985   1.399       .  A
C1985      C1986   1.394       .  A
C1985      H1989   1.085       .  S
C1986      O1990   1.373       .  S
O1990      H1991   0.991       .  S
C1993      C1994   1.397       .  A
C1993      C1998   1.417       .  A
C1994      C1995   1.402       .  A
C1994      H1999   1.084       .  S
C1995      C1996   1.420       .  A
C1995      O2000   1.372       .  S
C1996      C1997   1.402       .  A
C1997      C1998   1.407       .  A
C1997      H2001   1.084       .  S
C1998      O2002   1.372       .  S
O2000      H2004   0.992       .  S
O2002      H2003   0.992       .  S
C2005      C2006   1.392       .  A
C2005      C2010   1.395       .  A
C2006      C2007   1.383       .  A
C2006      H2011   1.082       .  S
C2007      C2008   1.404       .  A
C2007      O2012   1.371       .  S
C2008      C2009   1.400       .  A
C2009      C2010   1.377       .  A
C2009      H2013   1.084       .  S
C2010      O2014   1.371       .  S
O2012      H2016   0.992       .  S
O2014      H2015   0.992       .  S
C2017      C2018   1.390       .  A
C2017      C2022   1.405       .  A
C2018      C2019   1.383       .  A
C2018      H2023   1.085       .  S
C2019      C2020   1.412       .  A
C2019      O2024   1.368       .  S
C2020      C2021   1.397       .  A
C2021      C2022   1.390       .  A
C2021      H2025   1.084       .  S
C2022      O2026   1.371       .  S
O2024      H2028   0.991       .  S
O2026      H2027   0.992       .  S
C2029      C2030   1.409       .  A
C2029      C2034   1.411       .  A
C2030      C2031   1.411       .  A
C2030      H2035   1.083       .  S
C2031      C2032   1.409       .  A
C2031      O2036   1.372       .  S
C2032      C2033   1.398       .  A
C2033      C2034   1.387       .  A
C2033      H2037   1.085       .  S
C2034      O2038   1.373       .  S
O2036      H2040   0.991       .  S
O2038      H2039   0.992       .  S
C2041      C2042   1.409       .  A
C2041      C2046   1.410       .  A
C2042      C2043   1.402       .  A
C2042      H2047   1.083       .  S
C2043      C2044   1.410       .  A
C2043      O2048   1.372       .  S
C2044      C2045   1.414       .  A
C2045      C2046   1.415       .  A
C2045      H2049   1.083       .  S
C2046      O2050   1.369       .  S
O2048      H2052   0.992       .  S
O2050      H2051   0.992       .  S
C2053      C2054   1.407       .  A
C2053      C2058   1.417       .  A
C2054      C2055   1.397       .  A
C2054      H2059   1.083       .  S
C2055      C2056   1.409       .  A
C2055      O2060   1.373       .  S
C2056      C2057   1.404       .  A
C2057      C2058   1.411       .  A
C2057      H2061   1.083       .  S
C2058      O2062   1.372       .  S
O2060      H2064   0.992       .  S
O2062      H2063   0.992   1_565  S
C2065      C2066   1.409       .  A
C2065      C2070   1.411       .  A
C2066      C2067   1.405       .  A
C2066      H2071   1.083       .  S
C2067      C2068   1.411       .  A
C2067      O2072   1.371       .  S
C2068      C2069   1.409       .  A
C2069      C2070   1.408       .  A
C2069      H2073   1.083       .  S
C2070      O2074   1.371       .  S
O2072      H2076   0.992       .  S
O2074      H2075   0.992       .  S
C2077      C2078   1.411       .  A
C2077      C2082   1.415       .  A
C2078      C2079   1.410       .  A
C2078      H2083   1.084       .  S
C2079      C2080   1.415       .  A
C2079      O2084   1.372       .  S
C2080      C2081   1.410       .  A
C2081      C2082   1.409       .  A
C2081      H2085   1.083       .  S
C2082      O2086   1.372       .  S
O2084      H2088   0.992       .  S
O2086      H2087   0.992       .  S
C2089      C2090   1.404       .  A
C2089      C2094   1.415       .  A
C2090      C2091   1.404       .  A
C2090      H2095   1.083       .  S
C2091      C2092   1.415       .  A
C2091      O2096   1.372       .  S
C2092      C2093   1.405       .  A
C2093      C2094   1.410       .  A
C2093      H2097   1.083       .  S
C2094      O2098   1.372   1_655  S
O2096      H2100   0.992       .  S
O2098      H2099   0.991       .  S
C2101      C2102   1.399       .  A
C2101      C2106   1.412       .  A
C2102      H2107   1.084       .  S
C2103      C2104   1.420   1_565  A
C2103      O2108   1.376       .  S
C2104      C2105   1.410       .  A
C2105      H2109   1.083       .  S
C2106      O2110   1.371       .  S
O2108      H2112   0.991       .  S
O2110      H2111   0.992       .  S
C2113      C2114   1.409       .  A
C2113      C2118   1.410       .  A
C2114      H2119   1.083       .  S
C2115      C2116   1.406       .  A
C2115      O2120   1.370       .  S
C2116      C2117   1.412       .  A
C2117      H2121   1.083   1_455  S
C2118      O2122   1.371       .  S
O2120      H2124   0.992       .  S
O2122      H2123   0.992       .  S
C2125      C2126   1.396       .  A
C2125      C2130   1.411       .  A
C2126      C2127   1.399       .  A
C2126      H2131   1.084       .  S
C2127      C2128   1.415       .  A
C2127      O2132   1.370       .  S
C2128      C2129   1.400       .  A
C2129      C2130   1.406       .  A
C2129      H2133   1.083       .  S
C2130      O2134   1.369       .  S
O2132      H2136   0.992       .  S
O2134      H2135   0.992       .  S
C2137      C2138   1.402       .  A
C2137      C2142   1.405       .  A
C2138      C2139   1.385       .  A
C2138      H2143   1.083       .  S
C2139      C2140   1.407       .  A
C2139      O2144   1.372       .  S
C2140      C2141   1.404       .  A
C2141      C2142   1.392       .  A
C2141      H2145   1.083       .  S
C2142      O2146   1.371       .  S
O2144      H2148   0.992       .  S
O2146      H2147   0.991       .  S
C2149      C2150   1.401       .  A
C2149      C2154   1.409       .  A
C2150      C2151   1.393       .  A
C2150      H2155   1.084       .  S
C2151      C2152   1.407       .  A
C2151      O2156   1.367       .  S
C2152      C2153   1.403       .  A
C2153      C2154   1.391       .  A
C2153      H2157   1.084       .  S
C2154      O2158   1.370       .  S
O2156      H2160   0.991       .  S
O2158      H2159   0.989       .  S
C2161      C2162   1.404       .  A
C2161      C2166   1.410       .  A
C2162      C2163   1.396       .  A
C2162      H2167   1.084       .  S
C2163      C2164   1.411       .  A
C2163      O2168   1.369       .  S
C2164      C2165   1.415       .  A
C2165      C2166   1.416       .  A
C2165      H2169   1.083       .  S
C2166      O2170   1.371       .  S
O2168      H2172   0.992       .  S
O2170      H2171   0.992       .  S
C2173      C2174   1.402       .  A
C2173      C2178   1.407       .  A
C2174      C2175   1.409       .  A
C2174      H2179   1.083       .  S
C2175      C2176   1.417       .  A
C2175      O2180   1.370       .  S
C2176      C2177   1.404       .  A
C2177      C2178   1.395       .  A
C2177      H2181   1.081       .  S
C2178      O2182   1.372       .  S
O2180      H2184   0.991       .  S
O2182      H2183   0.992       .  S
C2185      C2186   1.409       .  A
C2185      C2190   1.407       .  A
C2186      C2187   1.417       .  A
C2186      H2191   1.083       .  S
C2187      C2188   1.413       .  A
C2187      O2192   1.371       .  S
C2188      C2189   1.404       .  A
C2189      C2190   1.392       .  A
C2189      H2193   1.084       .  S
C2190      O2194   1.374       .  S
O2192      H2196   0.992       .  S
O2194      H2195   0.992       .  S
C2197      C2202   1.411   1_565  A
C2198      C2199   1.403       .  A
C2198      H2203   1.084       .  S
C2199      C2200   1.411       .  A
C2199      O2204   1.370       .  S
C2201      C2202   1.402   1_554  A
C2201      H2205   1.083       .  S
C2202      O2206   1.371       .  S
O2204      H2208   0.991       .  S
O2206      H2207   0.992   1_545  S
C2209      C2214   1.417       .  A
C2210      C2211   1.409   1_554  A
C2210      H2215   1.083       .  S
C2211      C2212   1.417       .  A
C2211      O2216   1.371       .  S
C2213      C2214   1.411   1_556  A
C2213      H2217   1.083   1_655  S
C2214      O2218   1.371       .  S
O2216      H2220   0.992       .  S
O2218      H2219   0.992       .  S
C2221      C2222   1.406       .  A
C2221      C2226   1.409       .  A
C2222      C2223   1.406   1_554  A
C2222      H2227   1.084       .  S
C2223      C2224   1.411       .  A
C2223      O2228   1.371       .  S
C2224      C2225   1.407       .  A
C2225      C2226   1.406   1_556  A
C2225      H2229   1.084       .  S
C2226      O2230   1.370       .  S
O2228      H2232   0.992       .  S
O2230      H2231   0.990       .  S
