geometry optimzed in LAMMPS
_audit_creation_date              2020-11-30 
_audit_creation_method            'lammps2cif' 
_symmetry_space_group_name_H-M    'P1' 
_symmetry_Int_Tables_number       1 
_symmetry_cell_setting            triclinic 
loop_ 
_symmetry_equiv_pos_as_xyz 
  x,y,z 
_cell_length_a                    27.568856746752623 
_cell_length_b                    27.749940172456988 
_cell_length_c                    27.45331776563855 
_cell_angle_alpha                 97.07533814732815 
_cell_angle_beta                  95.59190902670693 
_cell_angle_gamma                 84.74289779440777 
loop_ 
_atom_site_label 
_atom_site_type_symbol 
_atom_site_fract_x 
_atom_site_fract_y 
_atom_site_fract_z 
_atom_site_charge 
C1          C  0.73096404  0.27478737  0.23879876     0.03160
C2          C  0.76239948  0.31108802  0.23971078    -0.12990
C3          C  0.80523676  0.31136412  0.27128577     0.00660
C4          C  0.81579992  0.27516699  0.30304720    -0.11510
C5          C  0.78246707  0.24008645  0.30411323     0.03160
C6          C  0.74017525  0.23987428  0.27149275    -0.10930
H7          H  0.75208315  0.34047447  0.21724502     0.08750
H8          H  0.84724166  0.27702590  0.32999341     0.06280
H9          H  0.71247507  0.21522812  0.27412337     0.06130
C10         C  0.12089795  0.83215861  0.24475746     0.03160
C11         C  0.14377743  0.84290090  0.20484314    -0.12990
C12         C  0.18780957  0.86463911  0.21338768     0.00660
C13         C  0.19749872  0.89133905  0.26039562    -0.11510
C14         C  0.16869647  0.88854500  0.29911095     0.03160
C15         C  0.12966987  0.85909216  0.29074779    -0.10930
H16         H  0.13248775  0.82591525  0.16914277     0.08750
H17         H  0.22966556  0.91120303  0.26913105     0.06280
H18         H  0.11169283  0.85073589  0.32176739     0.06130
C19         C  0.30972323  0.33401156  0.82471584     0.03160
C20         C  0.31115985  0.29745958  0.78499179    -0.12990
C21         C  0.28106126  0.30303459  0.74169368     0.00660
C22         C  0.25395935  0.34716340  0.73583288    -0.11510
C23         C  0.25151385  0.38340832  0.77574056     0.03160
C24         C  0.27865172  0.37624361  0.82035568    -0.10930
H25         H  0.33083487  0.26248819  0.78998037     0.08750
H26         H  0.22969055  0.35057708  0.70266736     0.06280
H27         H  0.27250720  0.40174919  0.85280364     0.06070
O28         O  0.85483396  0.07359302  0.62489241    -0.80860
O29         O  0.61481137  0.07654820  0.59938840    -0.65550
O30         O  0.75666509  0.05575231  0.59350164    -1.12150
C31         C  0.73850239  0.15117623  0.46764550     1.06030
O32         O  0.59347613  0.08993427  0.52175418    -0.78750
O33         O  0.67688006  0.04133621  0.48511960    -0.66340
Ni34       Ni  0.79567568  0.06474202  0.65474514     1.34870
C35         C  0.72194983  0.02762108  0.48291179     0.84770
O36         O  0.68719767  0.01896440  0.64044536    -0.79290
O37         O  0.74395273  0.05272135  0.69263338    -0.89570
C38         C  0.58169305  0.08201165  0.56378151     0.84340
O39         O  0.77331682  0.13189833  0.65808912    -0.67770
O40         O  0.70106642  0.12689371  0.45618166    -0.87060
C41         C  0.72865801  0.14674956  0.66269610     0.85170
C42         C  0.71286591  0.02145174  0.68130609     1.06740
H43         H  0.68086083  0.14741222  0.57024287     0.38540
O44         O  0.69029149  0.11546573  0.55441737    -1.09720
O45         O  0.75608879  0.05541428  0.49732786    -0.66370
Ni46       Ni  0.76097106  0.10520308  0.55196939     1.26350
O47         O  0.69319051  0.11961296  0.65033366    -0.66600
O48         O  0.76147606  0.15382044  0.50990257    -0.78890
C49         C  0.86641623  0.08229564  0.58326138     0.84550
O50         O  0.83308104  0.09452736  0.54988628    -0.66070
Ni51       Ni  0.65111802  0.10721865  0.49322038     1.27450
Ni52       Ni  0.68652146  0.06706751  0.59719242     1.26060
H53         H  0.76488762  0.02344314  0.57749795     0.39100
C54         C  0.65156497  0.37315819  0.85011586     0.03160
C55         C  0.64964945  0.33836823  0.80881176    -0.12990
C56         C  0.69055267  0.32685512  0.78231840     0.00660
C57         C  0.73019989  0.35544108  0.79218355    -0.11510
C58         C  0.73156074  0.39140919  0.83252023     0.03160
C59         C  0.69201109  0.40050469  0.86127706    -0.10930
H60         H  0.61901689  0.31608471  0.80114742     0.08750
H61         H  0.76146195  0.34745433  0.77064283     0.06280
H62         H  0.69433928  0.42595563  0.89457353     0.06130
O63         O  0.40578385  0.42744217  0.11182772    -0.80860
O64         O  0.41918676  0.18470578  0.07136128    -0.65550
O65         O  0.43382314  0.32444279  0.11538870    -1.12150
C66         C  0.53867669  0.31477186  0.99138450     1.06030
O67         O  0.49487882  0.16595368  0.05053944    -0.78750
O68         O  0.54402601  0.24107111  0.09447926    -0.66340
Ni69       Ni  0.37573124  0.36837547  0.12201438     1.34870
C70         C  0.55420843  0.28341029  0.11297377     0.84770
O71         O  0.38307645  0.24963212  0.14282558    -0.79290
O72         O  0.33630880  0.31862973  0.13578191    -0.89570
C73         C  0.45491313  0.15247094  0.06183535     0.84340
O74         O  0.36164070  0.35348627  0.05311829    -0.67770
O75         O  0.55077124  0.27247443  0.00418469    -0.87060
C76         C  0.35935108  0.31175221  0.02796653     0.85170
C77         C  0.34271342  0.27518239  0.14668345     1.06740
H78         H  0.44250819  0.26272333  0.00905742     0.38540
O79         O  0.46179097  0.26558604  0.04041744    -1.09720
O80         O  0.53092734  0.32236891  0.09991531    -0.66370
Ni81       Ni  0.46919420  0.33433808  0.06095608     1.26350
O82         O  0.36784572  0.27189651  0.04745888    -0.66600
O83         O  0.50168846  0.34106502  0.00547343    -0.78890
C84         C  0.44468512  0.43865039  0.09577003     0.84550
O85         O  0.47591801  0.40471216  0.07981510    -0.66070
Ni86       Ni  0.51869562  0.22298260  0.02947220     1.27450
Ni87       Ni  0.42408561  0.25572389  0.09245066     1.26060
H88         H  0.45433497  0.32696163  0.14594581     0.39100
O89         O  0.41308617  0.81825806  0.17293559    -0.80860
O90         O  0.55734162  0.82770724  0.02927482    -0.65550
O91         O  0.44002287  0.82691811  0.08712320    -1.12150
C92         C  0.48056188  0.64938250  0.08614960     1.06030
O93         O  0.55629320  0.75292503  0.98823511    -0.78750
O94         O  0.47588301  0.70549628  0.98639859    -0.66340
Ni95       Ni  0.42681827  0.87230101  0.14282875     1.34870
C96         C  0.43214754  0.72380131  0.98921451     0.84770
O97         O  0.48596348  0.90080401  0.05070075    -0.79290
O98         O  0.43979725  0.92905635  0.11296988    -0.89570
C99         C  0.57267366  0.79485036  0.99706377     0.84340
O100        O  0.48966818  0.86872227  0.17797709    -0.67770
O101        O  0.51658404  0.65631602  0.06281199    -0.87060
C102        C  0.53140024  0.85777185  0.16260338     0.85170
C103        C  0.46275517  0.93653442  0.07669891     1.06740
H104        H  0.53150423  0.75934825  0.10290121     0.38540
O105        O  0.50904179  0.76056533  0.07369815    -1.09720
O106        O  0.41631852  0.74518883  0.02901605    -0.66370
Ni107      Ni  0.44588468  0.75702986  0.09517741     1.26350
O108        O  0.53809244  0.84606606  0.11787240    -0.66600
O109        O  0.45054112  0.68556846  0.10077593    -0.78890
C110        C  0.37625880  0.79705066  0.15384559     0.84550
O111        O  0.38280583  0.76244979  0.11950925    -0.66070
Ni112      Ni  0.53429996  0.70855691  0.02846375     1.27450
Ni113      Ni  0.49864893  0.82956040  0.05931521     1.26060
H114        H  0.41382852  0.83301141  0.06202303     0.39100
O115        O  0.04144385  0.58816450  0.92245551    -0.80860
O116        O  0.00982219  0.56788762  0.67962827    -0.65550
O117        O  0.00572567  0.60512717  0.82194434    -1.12150
C118        C  0.88647018  0.50119482  0.81659168     1.06030
O119        O  0.93677071  0.54003992  0.66156549    -0.78750
O120        O  0.89849992  0.59968323  0.73884930    -0.66340
Ni121      Ni  0.06479774  0.61062859  0.86425695     1.34870
C122        C  0.89459558  0.62031981  0.78240875     0.84770
O123        O  0.04679385  0.63791343  0.74430887    -0.79290
O124        O  0.09613418  0.63660325  0.81430538    -0.89570
C125        C  0.97574265  0.55300109  0.64743560     0.84340
O126        O  0.08839819  0.54631165  0.84183248    -0.67770
O127        O  0.87382624  0.51936639  0.77648228    -0.87060
C128        C  0.09220554  0.52769615  0.79758103     0.85170
C129        C  0.08493419  0.64930761  0.77124690     1.06740
H130        H  0.98941504  0.50306196  0.75758238     0.38540
O131        O  0.97124494  0.53438619  0.76210185    -1.09720
O132        O  0.91115559  0.60012340  0.82075367    -0.66370
Ni133      Ni  0.96726495  0.55446946  0.83175690     1.26350
O134        O  0.06721099  0.54308201  0.76018450    -0.66600
O135        O  0.92862955  0.50357582  0.83858682    -0.78890
C136        C  0.99970116  0.58067386  0.93532553     0.84550
O137        O  0.96399598  0.57408840  0.90251359    -0.66070
Ni138      Ni  0.90995818  0.53146379  0.72273611     1.27450
Ni139      Ni  0.00891529  0.58612993  0.75156272     1.26060
H140        H  0.98762259  0.63656707  0.82627804     0.39100
C141        C  0.32419176  0.74544123  0.80341701     0.03160
C142        C  0.28194422  0.72277397  0.78526952    -0.12990
C143        C  0.25043342  0.74190772  0.74817234     0.00660
C144        C  0.26305278  0.78119847  0.72642442    -0.11510
C145        C  0.30542070  0.80396426  0.74466415     0.03160
C146        C  0.33557385  0.78661850  0.78355449    -0.10930
H147        H  0.27122966  0.69318952  0.80324137     0.08750
H148        H  0.23763916  0.79704112  0.69893047     0.06280
H149        H  0.36563188  0.80716404  0.80056713     0.06130
O150        O  0.34504841  0.07429218  0.52214679    -0.80860
O151        O  0.11048889  0.08324357  0.55024931    -0.65550
O152        O  0.25104941  0.09742276  0.55785725    -1.12150
C153        C  0.26834769  0.98173057  0.66520998     1.06030
O154        O  0.10530954  0.05006170  0.61882404    -0.78750
O155        O  0.18636111  0.09867915  0.66047868    -0.66340
Ni156      Ni  0.27929636  0.09644794  0.49713006     1.34870
C157        C  0.22934129  0.11287399  0.66416116     0.84770
O158        O  0.16602905  0.14583566  0.52087540    -0.79290
O159        O  0.22007856  0.12372614  0.46510794    -0.89570
C160        C  0.08458240  0.06865645  0.58102983     0.84340
O161        O  0.25992746  0.03178448  0.47733665    -0.67770
O162        O  0.23278223  0.01012466  0.68042902    -0.87060
C163        C  0.21530465  0.02144419  0.47034814     0.85170
C164        C  0.18211672  0.14856134  0.47985593     1.06740
H165        H  0.19465359  0.00250679  0.56409725     0.38540
O166        O  0.20094900  0.03218881  0.58520419    -1.09720
O167        O  0.26589949  0.08365573  0.65245557    -0.66370
Ni168      Ni  0.27056908  0.04190647  0.59151817     1.26350
O169        O  0.18147936  0.04787899  0.49159342    -0.66600
O170        O  0.28600683  0.98638463  0.62523385    -0.78890
C171        C  0.36626043  0.06413099  0.56345751     0.84550
O172        O  0.34114537  0.05274861  0.59687670    -0.66070
Ni173      Ni  0.17198533  0.03222981  0.64587876     1.27450
Ni174      Ni  0.18150476  0.08952337  0.55336769     1.26060
H175        H  0.25814212  0.12753720  0.57774041     0.39100
C176        C  0.75320314  0.85606328  0.35823833     0.03160
C177        C  0.71303130  0.86071531  0.32404335    -0.12990
C178        C  0.71083133  0.83030321  0.27986375     0.00660
C179        C  0.74937911  0.79538337  0.26918405    -0.11510
C180        C  0.78922069  0.79046463  0.30450368     0.03160
C181        C  0.79036124  0.82003353  0.34955024    -0.10930
H182        H  0.68383160  0.88894733  0.33131457     0.08750
H183        H  0.74838644  0.77274553  0.23411416     0.06280
H184        H  0.82127466  0.81644836  0.37686193     0.06130
C185        C  0.12834705  0.20871724  0.29732935     0.03160
C186        C  0.16771075  0.19604736  0.26823526    -0.12990
C187        C  0.17622062  0.22578706  0.23267839     0.00660
C188        C  0.14054330  0.26399154  0.22278698    -0.11510
C189        C  0.09895719  0.27319422  0.24869030     0.03160
C190        C  0.09353275  0.24601742  0.28656047    -0.10930
H191        H  0.19335471  0.16610069  0.27692383     0.08750
H192        H  0.14658296  0.28945833  0.19748052     0.06280
H193        H  0.06592948  0.25812179  0.31198242     0.06130
O194        O  0.96432800  0.52913635  0.15852643    -0.80860
O195        O  0.97905277  0.53396572  0.39654565    -0.65550
O196        O  0.95012666  0.56544445  0.26072238    -1.12150
C197        C  0.08586277  0.64598036  0.27996812     1.06030
O198        O  0.01995651  0.59868172  0.42551891    -0.78750
O199        O  0.98107644  0.65760276  0.35560345    -0.66340
Ni200      Ni  0.91985566  0.52452928  0.20861515     1.34870
C201        C  0.96468101  0.66886990  0.31321523     0.84770
O202        O  0.90470427  0.51661668  0.32843504    -0.79290
O203        O  0.87129890  0.52068011  0.25242194    -0.89570
C204        C  0.99829012  0.56187003  0.43294827     0.84340
O205        O  0.95795696  0.46720683  0.22703939    -0.67770
O206        O  0.07164879  0.65766817  0.32299391    -0.87060
C207        C  0.98759190  0.45718082  0.26380709     0.85170
C208        C  0.87760629  0.49991653  0.29132031     1.06740
H209        H  0.05192607  0.54766200  0.32440559     0.38540
O210        O  0.02551687  0.57280530  0.32265694    -1.09720
O211        O  0.98414896  0.65213958  0.27352233    -0.66370
Ni212      Ni  0.01213472  0.58646576  0.25482324     1.26350
O213        O  0.99370307  0.48497917  0.30414328    -0.66600
O214        O  0.07456286  0.60788342  0.25291947    -0.78890
C215        C  0.98372670  0.56670613  0.14944494     0.84550
O216        O  0.99812270  0.59799741  0.18509581    -0.66070
Ni217      Ni  0.04346933  0.62530107  0.37048941     1.27450
Ni218      Ni  0.96397580  0.54738515  0.32741203     1.26060
H219        H  0.92677392  0.59335199  0.26280093     0.39100
C220        C  0.71505763  0.83101370  0.87186376     0.03160
C221        C  0.70801140  0.87021344  0.84422751    -0.12990
C222        C  0.74025787  0.87449186  0.80920512     0.00660
C223        C  0.78141754  0.84155535  0.80428746    -0.11510
C224        C  0.78784001  0.80197614  0.83162992     0.03160
C225        C  0.75505940  0.79701636  0.86598412    -0.10930
H226        H  0.67589057  0.89561984  0.84786223     0.08750
H227        H  0.80664479  0.84487617  0.77723858     0.06280
H228        H  0.75861099  0.76491700  0.88537006     0.06130
C229        C  0.09387201  0.36164465  0.26171629    -0.05750
C230        C  0.06952158  0.31956401  0.24694009     0.00180
C231        C  0.01833302  0.32243533  0.23602160    -0.08390
C232        C  0.99257668  0.36841944  0.24203294    -0.05770
C233        C  0.01683772  0.41045517  0.25876756     0.00170
C234        C  0.06843626  0.40741464  0.26766108    -0.08300
C235        C  0.09690571  0.45171302  0.28400001     0.62080
H236        H  0.13311941  0.35802699  0.27057457     0.12770
H237        H  0.95321654  0.37180460  0.23486956     0.12790
C238        C  0.99159630  0.27734240  0.21748287     0.62310
F239        F  0.14670075  0.44103050  0.28126821    -0.22850
F240        F  0.08935741  0.46818959  0.33246018    -0.20180
F241        F  0.08200361  0.48798492  0.25415877    -0.19860
F242        F  0.99259246  0.24746156  0.25429160    -0.19910
F243        F  0.01353466  0.25196509  0.17774586    -0.20230
F244        F  0.94322858  0.28911364  0.20239323    -0.22910
C245        C  0.87662027  0.77809866  0.29835105    -0.05750
C246        C  0.83199832  0.75686939  0.29571524     0.00180
C247        C  0.83099323  0.70657816  0.29872629    -0.08390
C248        C  0.87564383  0.67893770  0.30504174    -0.05770
C249        C  0.92003519  0.70055106  0.30897431     0.00170
C250        C  0.92094325  0.75086879  0.30736283    -0.08300
C251        C  0.96795215  0.77582984  0.31927575     0.62080
H252        H  0.87604810  0.81713233  0.29778124     0.12770
H253        H  0.87606278  0.64056717  0.30873171     0.12790
C254        C  0.78328857  0.68278908  0.29738864     0.62310
F255        F  0.96083594  0.82543943  0.31618709    -0.22850
F256        F  0.00139468  0.75611109  0.28688925    -0.20180
F257        F  0.98692626  0.76887796  0.36664876    -0.19860
F258        F  0.75674788  0.68665784  0.25248181    -0.19910
F259        F  0.75603856  0.70536682  0.33473163    -0.20230
F260        F  0.79116315  0.63379228  0.30339582    -0.22910
C261        C  0.16250166  0.22741245  0.38160887    -0.05750
C262        C  0.13350856  0.19756879  0.34798846     0.00180
C263        C  0.10915888  0.16072085  0.36373216    -0.08390
C264        C  0.11942274  0.15104511  0.41262815    -0.05770
C265        C  0.15414384  0.17621345  0.44408096     0.00170
C266        C  0.17393287  0.21673679  0.42984924    -0.08300
C267        C  0.20889992  0.24649989  0.46485441     0.62080
H268        H  0.17806630  0.25760761  0.36895234     0.12770
H269        H  0.10449583  0.12055972  0.42501222     0.12790
C270        C  0.07479142  0.13074487  0.32844399     0.62310
F271        F  0.22035622  0.28713256  0.44503241    -0.22850
F272        F  0.25192212  0.21851449  0.47534618    -0.20180
F273        F  0.18752876  0.26206347  0.50819472    -0.19860
F274        F  0.09970873  0.10724695  0.28978434    -0.19910
F275        F  0.03645438  0.16094376  0.31007083    -0.20230
F276        F  0.05553965  0.09592470  0.35128966    -0.22910
C277        C  0.28481781  0.89105343  0.75895229    -0.05750
C278        C  0.30992190  0.85259041  0.73170318     0.00180
C279        C  0.33083169  0.85996037  0.68887126    -0.08390
C280        C  0.32039525  0.90508038  0.67075195    -0.05770
C281        C  0.28895870  0.94188593  0.69408733     0.00170
C282        C  0.27396769  0.93624393  0.74120804    -0.08300
C283        C  0.24452788  0.97569223  0.77207826     0.62080
H284        H  0.27016909  0.88397068  0.79239174     0.12770
H285        H  0.33381469  0.91024156  0.63614857     0.12790
C286        C  0.36224482  0.81956675  0.66189881     0.62310
F287        F  0.24378074  0.96484224  0.81990330    -0.22850
F288        F  0.19661026  0.98018322  0.75178844    -0.20180
F289        F  0.26509668  0.01968011  0.77464188    -0.19860
F290        F  0.33472989  0.78077408  0.64467531    -0.19910
F291        F  0.40078873  0.80403246  0.69387796    -0.20230
F292        F  0.38132528  0.83498723  0.62218198    -0.22910
C293        C  0.12333398  0.72555506  0.77482663    -0.05750
C294        C  0.11926820  0.67793603  0.75235128     0.00180
C295        C  0.15340944  0.65612199  0.71931554    -0.08390
C296        C  0.19408881  0.68106593  0.71398874    -0.05770
C297        C  0.20073680  0.72651768  0.74061910     0.00170
C298        C  0.16382167  0.75071864  0.76926667    -0.08300
C299        C  0.16865422  0.80156332  0.79610916     0.62080
H300        H  0.09620591  0.74151835  0.79938612     0.12770
H301        H  0.22301129  0.66365310  0.69231904     0.12790
C302        C  0.14842031  0.60571801  0.69229873     0.62310
F303        F  0.12828141  0.81809506  0.82157242    -0.22850
F304        F  0.17294443  0.83375595  0.76243317    -0.20180
F305        F  0.20950263  0.80173549  0.82960166    -0.19860
F306        F  0.10357990  0.60491811  0.66535565    -0.19910
F307        F  0.15183876  0.57204660  0.72566490    -0.20230
F308        F  0.18433624  0.59230329  0.66019940    -0.22910
C309        C  0.80093985  0.72798200  0.77584728    -0.05750
C310        C  0.81977234  0.75953170  0.81545196     0.00180
C311        C  0.86474166  0.74740616  0.84154621    -0.08390
C312        C  0.88889919  0.70182417  0.82842435    -0.05770
C313        C  0.86932465  0.66907112  0.78988004     0.00170
C314        C  0.82499074  0.68243770  0.76233329    -0.08300
C315        C  0.80179191  0.64843978  0.72060735     0.62080
H316        H  0.76610813  0.73884031  0.75677895     0.12770
H317        H  0.92279032  0.69107701  0.84902840     0.12790
C318        C  0.88650559  0.78247249  0.88294112     0.62310
F319        F  0.75577164  0.66699450  0.70356624    -0.22850
F320        F  0.79685404  0.60394058  0.73658631    -0.20180
F321        F  0.83067204  0.64172792  0.68152211    -0.19860
F322        F  0.85598662  0.79090696  0.92069919    -0.19910
F323        F  0.89185203  0.82612068  0.86532779    -0.20230
F324        F  0.93197595  0.76446260  0.90201349    -0.22910
C325        C  0.03421772  0.55941519  0.02060541    -0.05750
C326        C  0.99406709  0.57848880  0.99050168     0.00180
C327        C  0.95095272  0.59583555  0.01450980    -0.08390
C328        C  0.94958726  0.59264407  0.06607860    -0.05770
C329        C  0.98953216  0.57295923  0.09562334     0.00170
C330        C  0.03244247  0.55576433  0.07194718    -0.08300
C331        C  0.07603535  0.53259576  0.10111811     0.62080
H332        H  0.06723542  0.54619309  0.00322315     0.12770
H333        H  0.91657040  0.60507261  0.08380838     0.12790
C334        C  0.90645419  0.61858791  0.98618977     0.62310
F335        F  0.11443166  0.51775778  0.07236793    -0.22850
F336        F  0.06255393  0.49220648  0.11984885    -0.20180
F337        F  0.09227305  0.56576619  0.13970315    -0.19860
F338        F  0.88590268  0.58348219  0.95232800    -0.19910
F339        F  0.91988896  0.65548613  0.96192751    -0.20230
F340        F  0.87105706  0.63847378  0.01695043    -0.22910
C341        C  0.02701618  0.55466586  0.57454109    -0.05750
C342        C  0.98076561  0.55094238  0.59121709     0.00180
C343        C  0.94072461  0.54629138  0.55342106    -0.08390
C344        C  0.94863010  0.54732724  0.50271397    -0.05770
C345        C  0.99443063  0.55368617  0.48688088     0.00170
C346        C  0.03453232  0.55666265  0.52400596    -0.08300
C347        C  0.08586934  0.56126025  0.51043239     0.62080
H348        H  0.05789260  0.55627639  0.60177324     0.12770
H349        H  0.91818812  0.54499843  0.47471761     0.12790
C350        C  0.88892470  0.54128419  0.56566117     0.62310
F351        F  0.12067317  0.55457110  0.54942603    -0.22850
F352        F  0.08917856  0.60714103  0.49695660    -0.20180
F353        F  0.09692135  0.52647026  0.47165803    -0.19860
F354        F  0.87373696  0.58071772  0.59806245    -0.19910
F355        F  0.88732718  0.49851681  0.58633697    -0.20230
F356        F  0.85584332  0.53975346  0.52427548    -0.22910
C357        C  0.61741726  0.87248589  0.18230394    -0.05750
C358        C  0.57517615  0.85568509  0.19702713     0.00180
C359        C  0.57822103  0.82920508  0.23823329    -0.08390
C360        C  0.62429953  0.81935723  0.26262367    -0.05770
C361        C  0.66637639  0.83527278  0.24710344     0.00170
C362        C  0.66337868  0.86286328  0.20698800    -0.08300
C363        C  0.70829110  0.88225098  0.19084129     0.62080
H364        H  0.61414816  0.89238861  0.15049178     0.12770
H365        H  0.62800448  0.79972364  0.29472710     0.12790
C366        C  0.53365578  0.81027177  0.25564406     0.62310
F367        F  0.69670365  0.90950937  0.15172228    -0.22850
F368        F  0.74125141  0.84382810  0.17626777    -0.20180
F369        F  0.73019967  0.91174569  0.22946553    -0.19860
F370        F  0.51130216  0.77998410  0.21795105    -0.19910
F371        F  0.50100399  0.84901087  0.27020070    -0.20230
F372        F  0.54583380  0.78394408  0.29538791    -0.22910
C373        C  0.68643511  0.83561509  0.95369340    -0.05750
C374        C  0.67774415  0.82255539  0.90305080     0.00180
C375        C  0.63488876  0.80052572  0.88306144    -0.08390
C376        C  0.60103172  0.79275317  0.91533860    -0.05770
C377        C  0.60923967  0.80626160  0.96614970     0.00170
C378        C  0.65264898  0.82770809  0.98612339    -0.08300
C379        C  0.66403893  0.84094407  0.04115152     0.62080
H380        H  0.72000647  0.85205333  0.96746838     0.12770
H381        H  0.56763798  0.77618653  0.90114175     0.12790
C382        C  0.62534528  0.78487912  0.82815815     0.62310
F383        F  0.71124020  0.85468040  0.05237350    -0.22850
F384        F  0.65929385  0.80139274  0.06597148    -0.20180
F385        F  0.63228720  0.87951109  0.05780269    -0.19860
F386        F  0.66375261  0.75341320  0.81174187    -0.19910
F387        F  0.62054352  0.82526833  0.80271724    -0.20230
F388        F  0.58289217  0.76114315  0.81734320    -0.22910
C389        C  0.42361499  0.70873564  0.89843648    -0.05750
C390        C  0.40029999  0.72230655  0.94231042     0.00180
C391        C  0.34937327  0.73695651  0.93909383    -0.08390
C392        C  0.32546490  0.74226522  0.89234220    -0.05770
C393        C  0.35035833  0.73272798  0.84961648     0.00170
C394        C  0.39940855  0.71367147  0.85202243    -0.08300
C395        C  0.42596748  0.69872446  0.80582240     0.62080
H396        H  0.46199026  0.69616428  0.90036853     0.12770
H397        H  0.28734799  0.75594369  0.88882210     0.12790
C398        C  0.31992326  0.74755186  0.98382558     0.62310
F399        F  0.47161570  0.67520560  0.81623825    -0.22850
F400        F  0.43241051  0.73928516  0.78333961    -0.20180
F401        F  0.39891170  0.66724242  0.77332095    -0.19860
F402        F  0.33251791  0.79054924  0.01117480    -0.19910
F403        F  0.32856344  0.70959718  0.01265109    -0.20230
F404        F  0.27013517  0.75252603  0.97041014    -0.22910
C405        C  0.30959182  0.23438439  0.20911392    -0.05750
C406        C  0.30131217  0.25406939  0.16415386     0.00180
C407        C  0.25356076  0.25489362  0.13919729    -0.08390
C408        C  0.21726641  0.23401749  0.15956879    -0.05770
C409        C  0.22287105  0.22258703  0.20819757     0.00170
C410        C  0.27085816  0.22098673  0.23329084    -0.08300
C411        C  0.28229872  0.20723281  0.28535564     0.62080
H412        H  0.34641938  0.23321797  0.22697935     0.12770
H413        H  0.18135397  0.23304938  0.13952670     0.12790
C414        C  0.23567651  0.27990997  0.09370963     0.62310
F415        F  0.32998660  0.21491138  0.30342850    -0.22850
F416        F  0.27677138  0.15830056  0.28570293    -0.20180
F417        F  0.25209977  0.23510988  0.31705645    -0.19860
F418        F  0.21288179  0.24720888  0.05870622    -0.19910
F419        F  0.27154319  0.29851318  0.07215851    -0.20230
F420        F  0.20176696  0.31807973  0.10685976    -0.22910
C421        C  0.41577118  0.01870426  0.06394232    -0.05750
C422        C  0.46129964  0.99034300  0.06684672     0.00180
C423        C  0.50373199  0.01628266  0.06914586    -0.08390
C424        C  0.49923138  0.06786021  0.06727818    -0.05770
C425        C  0.45375417  0.09667041  0.06411800     0.00170
C426        C  0.41110763  0.07055022  0.06211559    -0.08300
C427        C  0.36053777  0.09678200  0.05716130     0.62080
H428        H  0.38320807  0.99961057  0.06364816     0.12770
H429        H  0.53234069  0.08637644  0.06930605     0.12790
C430        C  0.55403702  0.98973083  0.07597942     0.62310
F431        F  0.32408816  0.06502906  0.05340038    -0.22850
F432        F  0.35524081  0.12012516  0.01512988    -0.20180
F433        F  0.35399752  0.13053275  0.09791484    -0.19860
F434        F  0.56105052  0.95527169  0.03592670    -0.19910
F435        F  0.55786368  0.96694047  0.11840471    -0.20230
F436        F  0.59095789  0.02100357  0.08017091    -0.22910
C437        C  0.42479424  0.58032927  0.08642719    -0.05750
C438        C  0.47251755  0.59604590  0.09340919     0.00180
C439        C  0.51126628  0.55902232  0.10210419    -0.08390
C440        C  0.50086601  0.50926345  0.10291705    -0.05770
C441        C  0.45307768  0.49343817  0.09545400     0.00170
C442        C  0.41441737  0.53052376  0.08642719    -0.08300
C443        C  0.36192125  0.51760445  0.07412948     0.62080
H444        H  0.39518279  0.60758318  0.07908866     0.12770
H445        H  0.53064398  0.48190124  0.10926758     0.12790
C446        C  0.56402378  0.57177772  0.11143142     0.62310
F447        F  0.33155311  0.55654040  0.05901656    -0.22850
F448        F  0.34404229  0.50389477  0.11524153    -0.20180
F449        F  0.35981968  0.47982873  0.03622699    -0.19860
F450        F  0.56752040  0.61182901  0.14661678    -0.19910
F451        F  0.58059934  0.58206262  0.06821508    -0.20230
F452        F  0.59453611  0.53382383  0.12843239    -0.22910
C453        C  0.76585778  0.47015155  0.84822226    -0.05750
C454        C  0.77441588  0.41945144  0.84451366     0.00180
C455        C  0.82297911  0.39753320  0.84535297    -0.08390
C456        C  0.86038676  0.42671223  0.84013374    -0.05770
C457        C  0.85050569  0.47669977  0.83756246     0.00170
C458        C  0.80371025  0.49956793  0.84640284    -0.08300
C459        C  0.79135221  0.55414623  0.85338931     0.62080
H460        H  0.72883730  0.48692953  0.84987014     0.12770
H461        H  0.89699164  0.40991165  0.83536299     0.12790
C462        C  0.83691563  0.34400699  0.85009320     0.62310
F463        F  0.76870508  0.56659019  0.89652821    -0.22850
F464        F  0.75960875  0.56767182  0.81437632    -0.20180
F465        F  0.83205757  0.58007493  0.85703979    -0.19860
F466        F  0.85065440  0.32066186  0.80547612    -0.19910
F467        F  0.79929622  0.32088756  0.86458888    -0.20230
F468        F  0.87606335  0.33966349  0.88528852    -0.22910
C469        C  0.64621232  0.34485875  0.92926973    -0.05750
C470        C  0.62191343  0.36722386  0.88973411     0.00180
C471        C  0.57084541  0.37702796  0.88620788    -0.08390
C472        C  0.54476664  0.36001490  0.92102011    -0.05770
C473        C  0.56884624  0.33437069  0.95873350     0.00170
C474        C  0.62056854  0.32860840  0.96453134    -0.08300
C475        C  0.64892759  0.30606397  0.00756676     0.62080
H476        H  0.68565800  0.33808543  0.93092630     0.12770
H477        H  0.50527857  0.36490499  0.91785471     0.12790
C478        C  0.54469569  0.40536289  0.84614736     0.62310
F479        F  0.69836233  0.31254104  0.01001067    -0.22850
F480        F  0.64399518  0.25654331  0.00271991    -0.20180
F481        F  0.63168075  0.32778876  0.05129732    -0.19860
F482        F  0.54656936  0.37793024  0.80072400    -0.19910
F483        F  0.56685844  0.44798648  0.84540493    -0.20230
F484        F  0.49615976  0.41774980  0.85401244    -0.22910
C485        C  0.71069412  0.28168645  0.70337148    -0.05750
C486        C  0.69632868  0.28040741  0.75077505     0.00180
C487        C  0.69476967  0.23500876  0.76937073    -0.08390
C488        C  0.70353888  0.19250346  0.73766924    -0.05770
C489        C  0.71795064  0.19388247  0.69059539     0.00170
C490        C  0.72343604  0.23880036  0.67328399    -0.08300
C491        C  0.74207650  0.24182125  0.62365409     0.62080
H492        H  0.71305161  0.31679917  0.69071296     0.12770
H493        H  0.70095409  0.15735996  0.75012154     0.12790
C494        C  0.68731119  0.23031470  0.82286592     0.62310
F495        F  0.74895421  0.28926683  0.61686048    -0.22850
F496        F  0.70857653  0.22452108  0.58662841    -0.20180
F497        F  0.78640065  0.21461720  0.61977166    -0.19860
F498        F  0.63861692  0.24042469  0.83110884    -0.19910
F499        F  0.71536511  0.26165661  0.85441113    -0.20230
F500        F  0.70115633  0.18361305  0.83466962    -0.22910
C501        C  0.70771924  0.93718282  0.69491846    -0.05750
C502        C  0.70927897  0.98586802  0.71532491     0.00180
C503        C  0.71501022  0.99803113  0.76702070    -0.08390
C504        C  0.72523212  0.96020618  0.79650134    -0.05770
C505        C  0.72837445  0.91153992  0.77566137     0.00170
C506        C  0.71679976  0.89927655  0.72447927    -0.08300
C507        C  0.71425087  0.84689510  0.70081413     0.62080
H508        H  0.70249756  0.92884865  0.65523340     0.12770
H509        H  0.73202647  0.96836580  0.83609016     0.12790
C510        C  0.70992117  0.05031203  0.79111354     0.62310
F511        F  0.69236366  0.84473167  0.65308537    -0.22850
F512        F  0.68703115  0.82179621  0.72745404    -0.20180
F513        F  0.76072508  0.82385954  0.69896398    -0.19860
F514        F  0.66986012  0.07525588  0.76857114    -0.19910
F515        F  0.75164265  0.07317758  0.78727691    -0.20230
F516        F  0.70296125  0.05243452  0.84063089    -0.22910
C517        C  0.77376704  0.97599273  0.42788441    -0.05750
C518        C  0.73586171  0.97935787  0.45895600     0.00180
C519        C  0.71223623  0.93758075  0.46506103    -0.08390
C520        C  0.72388264  0.89457707  0.43501653    -0.05770
C521        C  0.75757692  0.89320624  0.39991210     0.00170
C522        C  0.78496970  0.93326556  0.39756177    -0.08300
C523        C  0.82342351  0.93196522  0.36111690     0.62080
H524        H  0.79234368  0.00815865  0.42503862     0.12770
H525        H  0.70371297  0.86292874  0.43556702     0.12790
C526        C  0.67444018  0.93821976  0.50190162     0.62310
F527        F  0.84454436  0.97580067  0.36464745    -0.22850
F528        F  0.80260240  0.92231875  0.31341173    -0.20180
F529        F  0.86020544  0.89613733  0.37042834    -0.19860
F530        F  0.63153635  0.96372835  0.48608075    -0.19910
F531        F  0.69211922  0.95985828  0.54741767    -0.20230
F532        F  0.66363727  0.89158370  0.50761878    -0.22910
C533        C  0.94512908  0.11454832  0.55986994    -0.05750
C534        C  0.92141231  0.07654855  0.57513696     0.00180
C535        C  0.95188288  0.03419247  0.58653770    -0.08390
C536        C  0.00376897  0.03317868  0.58665377    -0.05770
C537        C  0.02800691  0.07189283  0.57388078     0.00170
C538        C  0.99738939  0.11283391  0.55860526    -0.08300
C539        C  0.01986612  0.15548683  0.54254750     0.62080
H540        H  0.92244866  0.14654429  0.55034680     0.12770
H541        H  0.02622240  0.00150620  0.59743889     0.12790
C542        C  0.92964312  0.98902682  0.59759601     0.62310
F543        F  0.98494245  0.19270461  0.53189882    -0.22850
F544        F  0.04360686  0.14021281  0.50059006    -0.20180
F545        F  0.05299276  0.17402809  0.57965124    -0.19860
F546        F  0.89171115  0.97772329  0.56236233    -0.19910
F547        F  0.91214602  0.99699815  0.64362863    -0.20230
F548        F  0.96355478  0.94898534  0.59707809    -0.22910
C549        C  0.43980387  0.10976321  0.55480170    -0.05750
C550        C  0.42202876  0.06884985  0.57104366     0.00180
C551        C  0.45800600  0.03352515  0.58920620    -0.08390
C552        C  0.50933625  0.03952674  0.58838947    -0.05770
C553        C  0.52678132  0.07970682  0.56993817     0.00170
C554        C  0.49054676  0.11614399  0.55443971    -0.08300
C555        C  0.50522371  0.16271817  0.53812078     0.62080
H556        H  0.41299782  0.13713749  0.54136235     0.12770
H557        H  0.53630769  0.01176376  0.60072317     0.12790
C558        C  0.44211278  0.98863585  0.60751049     0.62310
F559        F  0.46588075  0.19719637  0.53399724    -0.22850
F560        F  0.52382809  0.15283215  0.49267460    -0.20180
F561        F  0.54024229  0.18283479  0.57224575    -0.19860
F562        F  0.41299846  0.96374469  0.57070543    -0.19910
F563        F  0.41582636  0.00228419  0.64807714    -0.20230
F564        F  0.48166823  0.95724203  0.62119244    -0.22910
C565        C  0.36997017  0.34857052  0.95377224    -0.05750
C566        C  0.35040917  0.31114817  0.97399737     0.00180
C567        C  0.32575271  0.27524957  0.94214081    -0.08390
C568        C  0.31382513  0.28356542  0.89288533    -0.05770
C569        C  0.33007805  0.32340918  0.87404342     0.00170
C570        C  0.36177150  0.35416348  0.90372824    -0.08300
C571        C  0.38875084  0.39074417  0.88223708     0.62080
H572        H  0.39245123  0.37340437  0.97755830     0.12770
H573        H  0.29105501  0.25932684  0.86871123     0.12790
C574        C  0.31318694  0.22813968  0.95871105     0.62310
F575        F  0.42277765  0.41202434  0.91668856    -0.22850
F576        F  0.35674122  0.42760778  0.86592602    -0.20180
F577        F  0.41299879  0.36719303  0.84312723    -0.19860
F578        F  0.28344549  0.23766690  0.99670689    -0.19910
F579        F  0.35582179  0.20204613  0.97407556    -0.20230
F580        F  0.28899909  0.19914198  0.92110848    -0.22910
C581        C  0.16412162  0.40828101  0.76384062    -0.05750
C582        C  0.21198220  0.42247808  0.77511471     0.00180
C583        C  0.21980933  0.47156136  0.79225134    -0.08390
C584        C  0.17913803  0.50406288  0.80101930    -0.05770
C585        C  0.13159214  0.48996588  0.78917473     0.00170
C586        C  0.12342391  0.44169727  0.76974895    -0.08300
C587        C  0.07232558  0.42533695  0.75679843     0.62080
H588        H  0.15880494  0.37034633  0.75169974     0.12770
H589        H  0.18449788  0.54151987  0.81572902     0.12790
C590        C  0.26972412  0.49147766  0.80171622     0.62310
F591        F  0.07276588  0.37550083  0.74368576    -0.22850
F592        F  0.05040908  0.44806928  0.71730943    -0.20180
F593        F  0.04497560  0.43717701  0.79687983    -0.19860
F594        F  0.30607830  0.46009314  0.78116154    -0.19910
F595        F  0.28127634  0.50056513  0.85197472    -0.20230
F596        F  0.26865496  0.53476199  0.78125381    -0.22910
C597        C  0.28513801  0.17824102  0.67292614    -0.05750
C598        C  0.23875241  0.16420206  0.68067178     0.00180
C599        C  0.20397181  0.19947900  0.70207206    -0.08390
C600        C  0.21850403  0.24641770  0.71741359    -0.05770
C601        C  0.26569006  0.25895189  0.71179799     0.00170
C602        C  0.29892817  0.22524516  0.68744388    -0.08300
C603        C  0.34929052  0.23668176  0.67651240     0.62080
H604        H  0.31157733  0.15226017  0.65517887     0.12770
H605        H  0.19394824  0.27324399  0.73672189     0.12790
C606        C  0.15265024  0.18819591  0.71058810     0.62310
F607        F  0.35464197  0.22407933  0.62685352    -0.22850
F608        F  0.38448446  0.20965032  0.70339284    -0.20180
F609        F  0.35715440  0.28546513  0.68762079    -0.19860
F610        F  0.15515547  0.15049157  0.73958438    -0.19910
F611        F  0.12662247  0.17550178  0.66589069    -0.20230
F612        F  0.12677708  0.22785900  0.73441968    -0.22910
C613        C  0.14334369  0.93884992  0.37410773    -0.05750
C614        C  0.18141690  0.91327356  0.34918886     0.00180
C615        C  0.22996920  0.91463006  0.37151477    -0.08390
C616        C  0.23959911  0.95034995  0.41115701    -0.05770
C617        C  0.20171934  0.97983795  0.43339595     0.00170
C618        C  0.15235320  0.96966965  0.41785993    -0.08300
C619        C  0.10886819  0.98982154  0.44639038     0.62080
H620        H  0.10609127  0.93567111  0.35820445     0.12770
H621        H  0.27727615  0.95441233  0.42535487     0.12790
C622        C  0.27222963  0.87843687  0.35682010     0.62310
F623        F  0.06696853  0.96707099  0.42861886    -0.22850
F624        F  0.09893604  0.03888793  0.44270746    -0.20180
F625        F  0.11859437  0.98205975  0.49531104    -0.19860
F626        F  0.30516134  0.90152856  0.33479234    -0.19910
F627        F  0.25722335  0.83880016  0.32525044    -0.20230
F628        F  0.29589542  0.86068347  0.39857016    -0.22910
C629        C  0.26601411  0.88307722  0.18771359    -0.05750
C630        C  0.22867423  0.85132202  0.18023882     0.00180
C631        C  0.23924907  0.80396586  0.15381586    -0.08390
C632        C  0.28807322  0.78927878  0.14540572    -0.05770
C633        C  0.32639932  0.81772299  0.16413318     0.00170
C634        C  0.31512998  0.86552592  0.18795575    -0.08300
C635        C  0.35230815  0.89797226  0.21689599     0.62080
H636        H  0.25689347  0.92102060  0.20040639     0.12770
H637        H  0.29718394  0.75376974  0.12596558     0.12790
C638        C  0.20153115  0.76838848  0.13233577     0.62310
F639        F  0.32995986  0.93532594  0.24726684    -0.22850
F640        F  0.37696280  0.91947205  0.18525840    -0.20180
F641        F  0.38466824  0.87156116  0.24723987    -0.19860
F642        F  0.16658843  0.79094241  0.10118042    -0.19910
F643        F  0.18050337  0.75085544  0.16944510    -0.20230
F644        F  0.22192063  0.72802742  0.10428597    -0.22910
C645        C  0.07188265  0.70782877  0.22454188    -0.05750
C646        C  0.10502888  0.68398464  0.25764411     0.00180
C647        C  0.14687423  0.70580442  0.27963488    -0.08390
C648        C  0.15132550  0.75393466  0.27244642    -0.05770
C649        C  0.11418847  0.78055713  0.24553108     0.00170
C650        C  0.07497647  0.75699441  0.21908438    -0.08300
C651        C  0.03467303  0.78449126  0.18928191     0.62080
H652        H  0.04026466  0.68957410  0.20777737     0.12770
H653        H  0.18291534  0.77199519  0.28965594     0.12790
C654        C  0.18568904  0.67839570  0.31112287     0.62310
F655        F  0.99633447  0.75606018  0.17275269    -0.22850
F656        F  0.05270628  0.79883778  0.14862825    -0.20180
F657        F  0.01636024  0.82528033  0.21809783    -0.19860
F658        F  0.20056786  0.63460995  0.28490307    -0.19910
F659        F  0.16712548  0.66919505  0.35375118    -0.20230
F660        F  0.22631693  0.70451729  0.32436863    -0.22910
C661        C  0.83678073  0.38143609  0.32423005    -0.05750
C662        C  0.83244660  0.35508192  0.27709528     0.00180
C663        C  0.84379214  0.37627825  0.23576818    -0.08390
C664        C  0.85487222  0.42462766  0.24257266    -0.05770
C665        C  0.85889625  0.45157883  0.28946535     0.00170
C666        C  0.85059612  0.42944083  0.33145761    -0.08300
C667        C  0.85430308  0.45629394  0.38320291     0.62080
H668        H  0.82713388  0.36478248  0.35523881     0.12770
H669        H  0.86242630  0.44081685  0.21041504     0.12790
C670        C  0.84360530  0.35015614  0.18363445     0.62310
F671        F  0.83608882  0.43070319  0.41669232    -0.22850
F672        F  0.82775647  0.50111578  0.38374220    -0.20180
F673        F  0.90271021  0.46278784  0.39879856    -0.19860
F674        F  0.80298339  0.36749363  0.15536129    -0.19910
F675        F  0.84345946  0.30021420  0.18235882    -0.20230
F676        F  0.88488038  0.35934322  0.16248387    -0.22910
C677        C  0.77577369  0.24389173  0.39227453    -0.05750
C678        C  0.78303750  0.21452408  0.34783220     0.00180
C679        C  0.78204707  0.16343012  0.34492662    -0.08390
C680        C  0.76874590  0.14378431  0.38588643    -0.05770
C681        C  0.75774278  0.17376819  0.42902386     0.00170
C682        C  0.76321154  0.22426526  0.43338548    -0.08300
C683        C  0.75316298  0.25758932  0.48004450     0.62080
H684        H  0.77703205  0.28293832  0.39349671     0.12770
H685        H  0.76561670  0.10494390  0.38416302     0.12790
C686        C  0.79529649  0.13006031  0.29923423     0.62310
F687        F  0.75725021  0.30600747  0.47480277    -0.22850
F688        F  0.78646914  0.24501630  0.51826224    -0.20180
F689        F  0.70624511  0.25328369  0.49186493    -0.19860
F690        F  0.83934101  0.14152195  0.28530227    -0.19910
F691        F  0.75954182  0.13522766  0.26096614    -0.20230
F692        F  0.80019461  0.08159867  0.30767275    -0.22910
C693        C  0.64666554  0.30898610  0.22246652    -0.05750
C694        C  0.68582724  0.27691946  0.20672157     0.00180
C695        C  0.68276178  0.24989640  0.15988788    -0.08390
C696        C  0.63894410  0.25441802  0.13044700    -0.05770
C697        C  0.59891492  0.28546001  0.14624828     0.00170
C698        C  0.60263950  0.31396747  0.19260654    -0.08300
C699        C  0.56026455  0.34759944  0.21125485     0.62080
H700        H  0.65100579  0.32985572  0.25844135     0.12770
H701        H  0.63551710  0.23346997  0.09445805     0.12790
C702        C  0.72572086  0.21696420  0.14109806     0.62310
F703        F  0.57174193  0.37033602  0.25821855    -0.22850
F704        F  0.52060402  0.32097954  0.21285862    -0.20180
F705        F  0.54777295  0.38343464  0.18043015    -0.19860
F706        F  0.73862736  0.18108618  0.17175353    -0.19910
F707        F  0.76517622  0.24407346  0.14013221    -0.20230
F708        F  0.71482594  0.19446165  0.09391333    -0.22910
loop_ 
_geom_bond_atom_site_label_1 
_geom_bond_atom_site_label_2 
_geom_bond_distance 
_geom_bond_site_symmetry_2 
_ccdc_geom_bond_type 
C1            C2   1.384       .  A
C1            C6   1.390       .  A
C1          C694   1.454       .  S
C2            C3   1.395       .  A
C2            H7   1.083       .  S
C3            C4   1.402       .  A
C3          C662   1.468       .  S
C4            C5   1.403       .  A
C4            H8   1.084       .  S
C5            C6   1.399       .  A
C5          C678   1.466       .  S
C6            H9   1.084       .  S
C10          C11   1.392       .  A
C10          C15   1.397       .  A
C10         C649   1.464       .  S
C11          C12   1.392       .  A
C11          H16   1.065       .  S
C12          C13   1.421       .  A
C12         C630   1.508       .  S
C13          C14   1.401       .  A
C13          H17   1.079       .  S
C14          C15   1.395       .  A
C14         C614   1.484       .  S
C15          H18   1.085       .  S
C19          C20   1.396       .  A
C19          C24   1.397       .  A
C19         C569   1.468       .  S
C20          C21   1.398       .  A
C20          H25   1.085       .  S
C21          C22   1.393       .  A
C21         C601   1.459       .  S
C22          C23   1.395       .  A
C22          H26   1.085       .  S
C23          C24   1.398       .  A
C23         C582   1.466       .  S
C24          H27   1.084       .  S
O28         Ni34   1.943       .  S
O28          C49   1.273       .  A
O29         Ni52   1.976       .  S
O29          C38   1.284       .  A
O30         Ni34   1.908       .  S
O30         Ni52   1.941       .  S
O30         Ni46   1.908       .  S
O30          H53   0.966       .  S
C31         C681   1.460       .  S
C31          O48   1.264       .  A
C31          O40   1.277       .  A
O32         Ni51   1.961       .  S
O32          C38   1.278       .  A
O33         Ni51   1.894       .  S
O33          C35   1.271       .  A
Ni34         O37   1.920       .  S
Ni34         O39   1.903       .  S
C35         C518   1.453   1_545  S
C35          O45   1.274       .  A
O36         Ni52   1.890       .  S
O36          C42   1.265       .  A
O37          C42   1.266       .  A
C38         C553   1.547       .  S
O39          C41   1.275       .  A
O40         Ni51   1.943       .  S
C41         C489   1.453       .  S
C41          O47   1.283       .  A
C42         C502   1.456   1_545  S
H43          O44   0.963       .  S
O44         Ni52   1.906       .  S
O44         Ni46   1.950       .  S
O44         Ni51   1.907       .  S
O45         Ni46   1.913       .  S
Ni46         O50   1.988       .  S
Ni46         O48   1.883       .  S
O47         Ni52   1.939       .  S
C49         C534   1.545       .  S
C49          O50   1.286       .  A
C54          C55   1.396       .  A
C54          C59   1.394       .  A
C54         C470   1.456       .  S
C55          C56   1.393       .  A
C55          H60   1.081       .  S
C56          C57   1.395       .  A
C56         C486   1.467       .  S
C57          C58   1.397       .  A
C57          H61   1.083       .  S
C58          C59   1.394       .  A
C58         C454   1.463       .  S
C59          H62   1.085       .  S
O63         Ni69   1.964       .  S
O63          C84   1.276       .  A
O64         Ni87   1.997       .  S
O64          C73   1.292       .  A
O65         Ni69   1.931       .  S
O65         Ni87   1.967       .  S
O65         Ni81   1.922       .  S
O65          H88   0.964       .  S
C66         C473   1.463       .  S
C66          O83   1.262   1_556  A
C66          O75   1.273   1_556  A
O67         Ni86   1.939       .  S
O67          C73   1.273       .  A
O68         Ni86   1.878       .  S
O68          C70   1.266       .  A
Ni69         O72   1.927       .  S
Ni69         O74   1.895       .  S
C70         C697   1.462       .  S
C70          O80   1.278       .  A
O71         Ni87   1.902       .  S
O71          C77   1.270       .  A
O72          C77   1.270       .  A
C73         C425   1.561       .  S
O74          C76   1.277       .  A
O75         Ni86   1.931       .  S
C76         C566   1.476   1_554  S
C76          O82   1.280       .  A
C77         C406   1.475       .  S
H78          O79   0.965       .  S
O79         Ni87   1.906       .  S
O79         Ni81   1.945       .  S
O79         Ni86   1.901       .  S
O80         Ni81   1.944       .  S
Ni81         O85   1.979       .  S
Ni81         O83   1.877       .  S
O82         Ni87   1.941       .  S
C84         C441   1.560       .  S
C84          O85   1.282       .  A
O89         Ni95   1.883       .  S
O89         C110   1.258       .  A
O90        Ni113   1.880       .  S
O90          C99   1.263   1_554  A
O91         Ni95   1.899       .  S
O91        Ni113   1.865       .  S
O91        Ni107   1.969       .  S
O91         H114   0.967       .  S
C92         C438   1.556       .  S
C92         O109   1.291       .  A
C92         O101   1.274       .  A
O93        Ni112   1.925   1_556  S
O93          C99   1.273       .  A
O94        Ni112   1.890   1_556  S
O94          C96   1.270       .  A
Ni95         O98   1.939       .  S
Ni95        O100   1.900       .  S
C96         C390   1.485       .  S
C96         O106   1.274   1_556  A
O97        Ni113   2.015       .  S
O97         C103   1.304       .  A
O98         C103   1.278       .  A
C99         C377   1.459       .  S
O100        C102   1.262       .  A
O101       Ni112   1.946       .  S
C102        C358   1.460       .  S
C102        O108   1.258       .  A
C103        C422   1.546       .  S
H104        O105   0.966       .  S
O105       Ni113   1.992       .  S
O105       Ni107   1.906       .  S
O105       Ni112   1.911       .  S
O106       Ni107   1.920       .  S
Ni107       O111   1.910       .  S
Ni107       O109   1.999       .  S
O108       Ni113   1.883       .  S
C110        C633   1.480       .  S
C110        O111   1.273       .  A
O115       Ni121   1.969       .  S
O115        C136   1.278   1_455  A
O116       Ni139   1.979       .  S
O116        C125   1.286   1_455  A
O117       Ni121   1.913       .  S
O117       Ni139   1.948       .  S
O117       Ni133   1.896   1_455  S
O117        H140   0.965   1_455  S
C118        C457   1.452       .  S
C118        O135   1.260       .  A
C118        O127   1.272       .  A
O119       Ni138   1.948       .  S
O119        C125   1.273       .  A
O120       Ni138   1.895       .  S
O120        C122   1.271       .  A
Ni121       O124   1.933       .  S
Ni121       O126   1.893       .  S
C122        C313   1.464       .  S
C122        O132   1.279       .  A
O123       Ni139   1.892       .  S
O123        C129   1.267       .  A
O124        C129   1.276       .  A
C125        C342   1.557       .  S
O126        C128   1.270       .  A
O127       Ni138   1.937       .  S
C128        C585   1.452       .  S
C128        O134   1.276       .  A
C129        C294   1.460       .  S
H130        O131   0.963       .  S
O131       Ni139   1.913   1_655  S
O131       Ni133   1.936       .  S
O131       Ni138   1.918       .  S
O132       Ni133   1.932       .  S
Ni133       O137   1.960       .  S
Ni133       O135   1.883       .  S
O134       Ni139   1.926       .  S
C136        C326   1.547       .  S
C136        O137   1.278       .  A
C141        C142   1.394       .  A
C141        C146   1.398       .  A
C141        C393   1.462       .  S
C142        C143   1.396       .  A
C142        H147   1.085       .  S
C143        C144   1.392       .  A
C143        C297   1.460       .  S
C144        C145   1.399       .  A
C144        H148   1.084       .  S
C145        C146   1.394       .  A
C145        C278   1.456       .  S
C146        H149   1.084       .  S
O150       Ni156   1.948       .  S
O150        C171   1.276       .  A
O151       Ni174   1.974       .  S
O151        C160   1.282       .  A
O152       Ni156   1.904       .  S
O152       Ni174   1.940       .  S
O152       Ni168   1.902       .  S
O152        H175   0.965       .  S
C153        C281   1.479       .  S
C153        O170   1.268       .  A
C153        O162   1.270   1_565  A
O154       Ni173   1.958       .  S
O154        C160   1.277       .  A
O155       Ni173   1.908       .  S
O155        C157   1.273       .  A
Ni156       O159   1.915       .  S
Ni156       O161   1.918       .  S
C157        C598   1.479       .  S
C157        O167   1.275       .  A
O158       Ni174   1.889       .  S
O158        C164   1.263       .  A
O159        C164   1.271       .  A
C160        C537   1.549       .  S
O161        C163   1.280       .  A
O162       Ni173   1.931       .  S
C163        C617   1.490   1_545  S
C163        O169   1.274       .  A
C164        C265   1.441       .  S
H165        O166   0.966       .  S
O166       Ni174   1.918       .  S
O166       Ni168   1.951       .  S
O166       Ni173   1.916       .  S
O167       Ni168   1.922       .  S
Ni168       O172   1.985       .  S
Ni168       O170   1.888   1_545  S
O169       Ni174   1.931       .  S
C171        C550   1.547       .  S
C171        O172   1.287       .  A
C176        C177   1.388       .  A
C176        C181   1.381       .  A
C176        C521   1.446       .  S
C177        C178   1.389       .  A
C177        H182   1.086       .  S
C178        C179   1.399       .  A
C178        C361   1.454       .  S
C179        C180   1.401       .  A
C179        H183   1.082       .  S
C180        C181   1.397       .  A
C180        C246   1.455       .  S
C181        H184   1.085       .  S
C185        C186   1.403       .  A
C185        C190   1.385       .  A
C185        C262   1.452       .  S
C186        C187   1.403       .  A
C186        H191   1.075       .  S
C187        C188   1.412       .  A
C187        C409   1.499       .  S
C188        C189   1.395       .  A
C188        H192   1.084       .  S
C189        C190   1.384       .  A
C189        C230   1.460       .  S
C190        H193   1.085       .  S
O194       Ni200   1.952       .  S
O194        C215   1.276       .  A
O195       Ni218   1.976       .  S
O195        C204   1.289       .  A
O196       Ni200   1.890       .  S
O196       Ni218   1.950       .  S
O196       Ni212   1.884   1_655  S
O196        H219   0.960       .  S
C197        C646   1.446       .  S
C197        O214   1.260       .  A
C197        O206   1.275       .  A
O198       Ni217   1.950       .  S
O198        C204   1.276   1_455  A
O199       Ni217   1.897   1_655  S
O199        C201   1.272       .  A
Ni200       O203   1.903       .  S
Ni200       O205   1.918       .  S
C201        C249   1.449       .  S
C201        O211   1.279       .  A
O202       Ni218   1.916       .  S
O202        C208   1.269       .  A
O203        C208   1.265       .  A
C204        C345   1.540       .  S
O205        C207   1.277       .  A
O206       Ni217   1.930       .  S
C207        C233   1.462   1_655  S
C207        O213   1.275       .  A
C208        C665   1.474       .  S
H209        O210   0.963       .  S
O210       Ni218   1.918   1_455  S
O210       Ni212   1.940       .  S
O210       Ni217   1.904       .  S
O211       Ni212   1.941   1_655  S
Ni212       O216   1.975   1_455  S
Ni212       O214   1.879       .  S
O213       Ni218   1.910       .  S
C215        C329   1.534       .  S
C215        O216   1.284       .  A
C220        C221   1.390       .  A
C220        C225   1.392       .  A
C220        C374   1.453       .  S
C221        C222   1.394       .  A
C221        H226   1.085       .  S
C222        C223   1.397       .  A
C222        C505   1.458       .  S
C223        C224   1.394       .  A
C223        H227   1.083       .  S
C224        C225   1.395       .  A
C224        C310   1.455       .  S
C225        H228   1.085       .  S
C229        C230   1.397       .  A
C229        C234   1.393       .  A
C229        H236   1.084       .  S
C230        C231   1.411       .  A
C231        C232   1.402   1_455  A
C231        C238   1.519   1_455  S
C232        C233   1.404   1_655  A
C232        H237   1.081       .  S
C233        C234   1.416       .  A
C234        C235   1.517       .  S
C235        F239   1.385       .  S
C235        F240   1.382       .  S
C235        F241   1.384       .  S
C238        F242   1.381       .  S
C238        F243   1.383   1_655  S
C238        F244   1.379       .  S
C245        C246   1.404       .  A
C245        C250   1.394       .  A
C245        H252   1.084       .  S
C246        C247   1.411       .  A
C247        C248   1.397       .  A
C247        C254   1.520       .  S
C248        C249   1.401       .  A
C248        H253   1.081       .  S
C249        C250   1.405       .  A
C250        C251   1.514       .  S
C251        F255   1.385       .  S
C251        F256   1.374   1_655  S
C251        F257   1.383       .  S
C254        F258   1.382       .  S
C254        F259   1.383       .  S
C254        F260   1.385       .  S
C261        C262   1.402       .  A
C261        C266   1.393       .  A
C261        H268   1.083       .  S
C262        C263   1.405       .  A
C263        C264   1.398       .  A
C263        C270   1.515       .  S
C264        C265   1.401       .  A
C264        H269   1.078       .  S
C265        C266   1.406       .  A
C266        C267   1.518       .  S
C267        F271   1.385       .  S
C267        F272   1.383       .  S
C267        F273   1.383       .  S
C270        F274   1.383       .  S
C270        F275   1.383       .  S
C270        F276   1.385       .  S
C277        C278   1.395       .  A
C277        C282   1.397       .  A
C277        H284   1.084       .  S
C278        C279   1.403       .  A
C279        C280   1.399       .  A
C279        C286   1.516       .  S
C280        C281   1.410       .  A
C280        H285   1.082       .  S
C281        C282   1.426       .  A
C282        C283   1.522       .  S
C283        F287   1.385       .  S
C283        F288   1.384       .  S
C283        F289   1.384   1_565  S
C286        F290   1.383       .  S
C286        F291   1.383       .  S
C286        F292   1.384       .  S
C293        C294   1.397       .  A
C293        C298   1.400       .  A
C293        H300   1.084       .  S
C294        C295   1.415       .  A
C295        C296   1.399       .  A
C295        C302   1.512       .  S
C296        C297   1.396       .  A
C296        H301   1.084       .  S
C297        C298   1.416       .  A
C298        C299   1.520       .  S
C299        F303   1.385       .  S
C299        F304   1.382       .  S
C299        F305   1.383       .  S
C302        F306   1.378       .  S
C302        F307   1.378       .  S
C302        F308   1.385       .  S
C309        C310   1.399       .  A
C309        C314   1.398       .  A
C309        H316   1.084       .  S
C310        C311   1.405       .  A
C311        C312   1.398       .  A
C311        C318   1.517       .  S
C312        C313   1.407       .  A
C312        H317   1.081       .  S
C313        C314   1.417       .  A
C314        C315   1.521       .  S
C315        F319   1.385       .  S
C315        F320   1.383       .  S
C315        F321   1.382       .  S
C318        F322   1.383       .  S
C318        F323   1.383       .  S
C318        F324   1.385       .  S
C325        C326   1.418   1_454  A
C325        C330   1.431       .  A
C325        H332   1.082       .  S
C326        C327   1.431   1_556  A
C327        C328   1.434       .  A
C327        C334   1.517   1_554  S
C328        C329   1.412       .  A
C328        H333   1.083       .  S
C329        C330   1.421   1_655  A
C330        C331   1.515       .  S
C331        F335   1.384       .  S
C331        F336   1.384       .  S
C331        F337   1.383       .  S
C334        F338   1.382       .  S
C334        F339   1.384       .  S
C334        F340   1.385   1_556  S
C341        C342   1.413   1_455  A
C341        C346   1.431       .  A
C341        H348   1.077       .  S
C342        C343   1.443       .  A
C343        C344   1.434       .  A
C343        C350   1.521       .  S
C344        C345   1.408       .  A
C344        H349   1.082       .  S
C345        C346   1.430   1_655  A
C346        C347   1.518       .  S
C347        F351   1.385       .  S
C347        F352   1.382       .  S
C347        F353   1.384       .  S
C350        F354   1.383       .  S
C350        F355   1.383       .  S
C350        F356   1.385       .  S
C357        C358   1.405       .  A
C357        C362   1.397       .  A
C357        H364   1.082       .  S
C358        C359   1.415       .  A
C359        C360   1.397       .  A
C359        C366   1.519       .  S
C360        C361   1.400       .  A
C360        H365   1.084       .  S
C361        C362   1.409       .  A
C362        C363   1.519       .  S
C363        F367   1.384       .  S
C363        F368   1.382       .  S
C363        F369   1.382       .  S
C366        F370   1.383       .  S
C366        F371   1.383       .  S
C366        F372   1.385       .  S
C373        C374   1.396       .  A
C373        C378   1.398       .  A
C373        H380   1.084       .  S
C374        C375   1.412       .  A
C375        C376   1.396       .  A
C375        C382   1.521       .  S
C376        C377   1.401       .  A
C376        H381   1.084       .  S
C377        C378   1.417       .  A
C378        C379   1.519   1_556  S
C379        F383   1.385       .  S
C379        F384   1.383       .  S
C379        F385   1.381       .  S
C382        F386   1.383       .  S
C382        F387   1.382       .  S
C382        F388   1.385       .  S
C389        C390   1.414       .  A
C389        C394   1.396       .  A
C389        H396   1.082       .  S
C390        C391   1.423       .  A
C391        C392   1.403       .  A
C391        C398   1.522       .  S
C392        C393   1.401       .  A
C392        H397   1.083       .  S
C393        C394   1.405       .  A
C394        C395   1.521       .  S
C395        F399   1.384       .  S
C395        F400   1.382       .  S
C395        F401   1.383       .  S
C398        F402   1.383   1_556  S
C398        F403   1.384   1_556  S
C398        F404   1.385       .  S
C405        C406   1.401       .  A
C405        C410   1.411       .  A
C405        H412   1.083       .  S
C406        C407   1.423       .  A
C407        C408   1.395       .  A
C407        C414   1.522       .  S
C408        C409   1.401       .  A
C408        H413   1.086       .  S
C409        C410   1.430       .  A
C410        C411   1.521       .  S
C411        F415   1.385       .  S
C411        F416   1.381       .  S
C411        F417   1.381       .  S
C414        F418   1.383       .  S
C414        F419   1.370       .  S
C414        F420   1.384       .  S
C421        C422   1.420   1_545  A
C421        C426   1.439       .  A
C421        H428   1.082   1_545  S
C422        C423   1.421   1_565  A
C423        C424   1.432       .  A
C423        C430   1.516   1_545  S
C424        C425   1.425       .  A
C424        H429   1.081       .  S
C425        C426   1.430       .  A
C426        C427   1.514       .  S
C427        F431   1.384       .  S
C427        F432   1.381       .  S
C427        F433   1.383       .  S
C430        F434   1.382       .  S
C430        F435   1.383       .  S
C430        F436   1.385   1_565  S
C437        C438   1.412       .  A
C437        C442   1.437       .  A
C437        H444   1.082       .  S
C438        C439   1.436       .  A
C439        C440   1.439       .  A
C439        C446   1.518       .  S
C440        C441   1.415       .  A
C440        H445   1.082       .  S
C441        C442   1.438       .  A
C442        C443   1.519       .  S
C443        F447   1.385       .  S
C443        F448   1.382       .  S
C443        F449   1.384       .  S
C446        F450   1.384       .  S
C446        F451   1.382       .  S
C446        F452   1.385       .  S
C453        C454   1.398       .  A
C453        C458   1.391       .  A
C453        H460   1.085       .  S
C454        C455   1.418       .  A
C455        C456   1.396       .  A
C455        C462   1.518       .  S
C456        C457   1.398       .  A
C456        H461   1.085       .  S
C457        C458   1.414       .  A
C458        C459   1.514       .  S
C459        F463   1.384       .  S
C459        F464   1.382       .  S
C459        F465   1.377       .  S
C462        F466   1.383       .  S
C462        F467   1.382       .  S
C462        F468   1.384       .  S
C469        C470   1.400       .  A
C469        C474   1.393       .  A
C469        H476   1.084       .  S
C470        C471   1.405       .  A
C471        C472   1.400       .  A
C471        C478   1.517       .  S
C472        C473   1.407       .  A
C472        H477   1.081       .  S
C473        C474   1.416       .  A
C474        C475   1.520   1_556  S
C475        F479   1.385       .  S
C475        F480   1.382       .  S
C475        F481   1.382       .  S
C478        F482   1.382       .  S
C478        F483   1.383       .  S
C478        F484   1.382       .  S
C485        C486   1.402       .  A
C485        C490   1.400       .  A
C485        H492   1.083       .  S
C486        C487   1.422       .  A
C487        C488   1.394       .  A
C487        C494   1.525       .  S
C488        C489   1.394       .  A
C488        H493   1.083       .  S
C489        C490   1.413       .  A
C490        C491   1.517       .  S
C491        F495   1.385       .  S
C491        F496   1.376       .  S
C491        F497   1.382       .  S
C494        F498   1.381       .  S
C494        F499   1.383       .  S
C494        F500   1.385       .  S
C501        C502   1.400       .  A
C501        C506   1.396       .  A
C501        H508   1.084       .  S
C502        C503   1.415       .  A
C503        C504   1.395       .  A
C503        C510   1.519   1_565  S
C504        C505   1.399       .  A
C504        H509   1.084       .  S
C505        C506   1.417       .  A
C506        C507   1.522       .  S
C507        F511   1.385       .  S
C507        F512   1.383       .  S
C507        F513   1.381       .  S
C510        F514   1.384       .  S
C510        F515   1.382       .  S
C510        F516   1.385       .  S
C517        C518   1.402       .  A
C517        C522   1.391       .  A
C517        H524   1.083   1_565  S
C518        C519   1.416       .  A
C519        C520   1.395       .  A
C519        C526   1.519       .  S
C520        C521   1.397       .  A
C520        H525   1.084       .  S
C521        C522   1.411       .  A
C522        C523   1.522       .  S
C523        F527   1.385       .  S
C523        F528   1.383       .  S
C523        F529   1.382       .  S
C526        F530   1.382       .  S
C526        F531   1.382       .  S
C526        F532   1.385       .  S
C533        C534   1.416       .  A
C533        C538   1.441       .  A
C533        H540   1.082       .  S
C534        C535   1.430       .  A
C535        C536   1.428   1_655  A
C535        C542   1.520   1_545  S
C536        C537   1.412       .  A
C536        H541   1.083       .  S
C537        C538   1.432   1_455  A
C538        C539   1.515   1_655  S
C539        F543   1.384   1_455  S
C539        F544   1.382       .  S
C539        F545   1.383       .  S
C542        F546   1.384       .  S
C542        F547   1.382       .  S
C542        F548   1.385       .  S
C549        C550   1.413       .  A
C549        C554   1.427       .  A
C549        H556   1.083       .  S
C550        C551   1.428       .  A
C551        C552   1.443       .  A
C551        C558   1.514   1_545  S
C552        C553   1.420       .  A
C552        H557   1.082       .  S
C553        C554   1.428       .  A
C554        C555   1.519       .  S
C555        F559   1.385       .  S
C555        F560   1.382       .  S
C555        F561   1.384       .  S
C558        F562   1.383       .  S
C558        F563   1.383   1_565  S
C558        F564   1.384       .  S
C565        C566   1.407       .  A
C565        C570   1.396       .  A
C565        H572   1.084       .  S
C566        C567   1.419       .  A
C567        C568   1.402       .  A
C567        C574   1.515       .  S
C568        C569   1.403       .  A
C568        H573   1.083       .  S
C569        C570   1.408       .  A
C570        C571   1.518       .  S
C571        F575   1.384       .  S
C571        F576   1.377       .  S
C571        F577   1.383       .  S
C574        F578   1.375       .  S
C574        F579   1.381       .  S
C574        F580   1.385       .  S
C581        C582   1.406       .  A
C581        C586   1.397       .  A
C581        H588   1.083       .  S
C582        C583   1.414       .  A
C583        C584   1.394       .  A
C583        C590   1.517       .  S
C584        C585   1.399       .  A
C584        H589   1.086       .  S
C585        C586   1.409       .  A
C586        C587   1.516       .  S
C587        F591   1.385       .  S
C587        F592   1.382       .  S
C587        F593   1.384       .  S
C590        F594   1.382       .  S
C590        F595   1.383       .  S
C590        F596   1.384       .  S
C597        C598   1.413       .  A
C597        C602   1.392       .  A
C597        H604   1.084       .  S
C598        C599   1.421       .  A
C599        C600   1.401       .  A
C599        C606   1.523       .  S
C600        C601   1.404       .  A
C600        H605   1.083       .  S
C601        C602   1.404       .  A
C602        C603   1.518       .  S
C603        F607   1.384       .  S
C603        F608   1.383       .  S
C603        F609   1.383       .  S
C606        F610   1.384       .  S
C606        F611   1.383       .  S
C606        F612   1.385       .  S
C613        C614   1.399       .  A
C613        C618   1.401       .  A
C613        H620   1.083       .  S
C614        C615   1.419       .  A
C615        C616   1.401       .  A
C615        C622   1.519       .  S
C616        C617   1.406       .  A
C616        H621   1.084       .  S
C617        C618   1.429       .  A
C618        C619   1.522       .  S
C619        F623   1.385       .  S
C619        F624   1.378   1_565  S
C619        F625   1.383       .  S
C622        F626   1.382       .  S
C622        F627   1.382       .  S
C622        F628   1.384       .  S
C629        C630   1.400       .  A
C629        C634   1.396       .  A
C629        H636   1.082       .  S
C630        C631   1.440       .  A
C631        C632   1.403       .  A
C631        C638   1.526       .  S
C632        C633   1.397       .  A
C632        H637   1.082       .  S
C633        C634   1.426       .  A
C634        C635   1.525       .  S
C635        F639   1.385       .  S
C635        F640   1.375       .  S
C635        F641   1.383       .  S
C638        F642   1.383       .  S
C638        F643   1.378       .  S
C638        F644   1.386       .  S
C645        C646   1.405       .  A
C645        C650   1.402       .  A
C645        H652   1.083       .  S
C646        C647   1.401       .  A
C647        C648   1.392       .  A
C647        C654   1.518       .  S
C648        C649   1.410       .  A
C648        H653   1.084       .  S
C649        C650   1.408       .  A
C650        C651   1.519       .  S
C651        F655   1.384   1_455  S
C651        F656   1.380       .  S
C651        F657   1.384       .  S
C654        F658   1.383       .  S
C654        F659   1.382       .  S
C654        F660   1.384       .  S
C661        C662   1.406       .  A
C661        C666   1.404       .  A
C661        H668   1.083       .  S
C662        C663   1.414       .  A
C663        C664   1.389       .  A
C663        C670   1.522       .  S
C664        C665   1.407       .  A
C664        H669   1.084       .  S
C665        C666   1.418       .  A
C666        C667   1.519       .  S
C667        F671   1.385       .  S
C667        F672   1.383       .  S
C667        F673   1.382       .  S
C670        F674   1.383       .  S
C670        F675   1.382       .  S
C670        F676   1.384       .  S
C677        C678   1.402       .  A
C677        C682   1.397       .  A
C677        H684   1.084       .  S
C678        C679   1.413       .  A
C679        C680   1.401       .  A
C679        C686   1.518       .  S
C680        C681   1.403       .  A
C680        H685   1.084       .  S
C681        C682   1.412       .  A
C682        C683   1.518       .  S
C683        F687   1.385       .  S
C683        F688   1.382       .  S
C683        F689   1.383       .  S
C686        F690   1.383       .  S
C686        F691   1.380       .  S
C686        F692   1.385       .  S
C693        C694   1.402       .  A
C693        C698   1.403       .  A
C693        H700   1.083       .  S
C694        C695   1.406       .  A
C695        C696   1.391       .  A
C695        C702   1.519       .  S
C696        C697   1.405       .  A
C696        H701   1.083       .  S
C697        C698   1.413       .  A
C698        C699   1.516       .  S
C699        F703   1.385       .  S
C699        F704   1.381       .  S
C699        F705   1.383       .  S
C702        F706   1.382       .  S
C702        F707   1.382       .  S
C702        F708   1.385       .  S
