geometry optimzed in LAMMPS
_audit_creation_date              2020-11-30 
_audit_creation_method            'lammps2cif' 
_symmetry_space_group_name_H-M    'P1' 
_symmetry_Int_Tables_number       1 
_symmetry_cell_setting            triclinic 
loop_ 
_symmetry_equiv_pos_as_xyz 
  x,y,z 
_cell_length_a                    33.66753317 
_cell_length_b                    33.437368455830864 
_cell_length_c                    33.670321366146055 
_cell_angle_alpha                 90.6246202107189 
_cell_angle_beta                  90.28281764895517 
_cell_angle_gamma                 90.19863258558364 
loop_ 
_atom_site_label 
_atom_site_type_symbol 
_atom_site_fract_x 
_atom_site_fract_y 
_atom_site_fract_z 
_atom_site_charge 
Zn1        Zn  0.73672805  0.78489058  0.71126726     1.49700
Zn2        Zn  0.77998734  0.70716074  0.74787416     1.49400
Zn3        Zn  0.77695101  0.78966245  0.79349435     1.49100
Zn4        Zn  0.69863151  0.74174795  0.78937594     1.49500
O5          O  0.74738826  0.75491366  0.76011505    -1.83600
O6          O  0.74924004  0.75142004  0.66322321    -0.74200
O7          O  0.83734603  0.71096749  0.77370893    -0.74000
O8          O  0.78683065  0.84117374  0.77038027    -0.73600
O9          O  0.77802024  0.69733657  0.68795744    -0.74200
O10         O  0.76266474  0.84098104  0.70923252    -0.73800
O11         O  0.82853560  0.76835148  0.80544258    -0.74400
O12         O  0.69627473  0.76745219  0.84717335    -0.73800
O13         O  0.74964005  0.65707593  0.76291335    -0.74600
O14         O  0.75214770  0.80230524  0.84367572    -0.74000
O15         O  0.69275289  0.68159420  0.78612877    -0.74400
O16         O  0.65104576  0.75666236  0.75536782    -0.74300
O17         O  0.67826727  0.78692671  0.70344524    -0.74100
C18         C  0.76184170  0.71581821  0.65910598     0.77700
C19         C  0.85026999  0.73886961  0.79697960     0.78200
C20         C  0.78108384  0.85848670  0.73777009     0.77100
C21         C  0.72119150  0.79255842  0.86220982     0.77500
C22         C  0.71336286  0.65245522  0.77268746     0.78600
C23         C  0.64850178  0.77131421  0.72061964     0.77700
C24         C  0.87935249  0.00269951  0.74379123    -0.02000
Zn25       Zn  0.78366582  0.29780131  0.76926251     1.49700
Zn26       Zn  0.73954956  0.21673185  0.79978562     1.49400
Zn27       Zn  0.70691940  0.26168237  0.72084637     1.49100
Zn28       Zn  0.78648397  0.21962549  0.72462813     1.49500
O29         O  0.75195064  0.25065665  0.75535482    -1.83600
O30         O  0.78959767  0.29946050  0.82957784    -0.74200
O31         O  0.68013175  0.21567079  0.80428738    -0.74000
O32         O  0.70094913  0.32239631  0.71931127    -0.73600
O33         O  0.75556333  0.24603861  0.84992991    -0.74200
O34         O  0.74977331  0.34712603  0.75729509    -0.73800
O35         O  0.65622148  0.24501421  0.75008793    -0.74400
O36         O  0.78016375  0.22905546  0.66770154    -0.73800
O37         O  0.76524681  0.16014896  0.79482151    -0.74600
O38         O  0.71456112  0.23254251  0.66541066    -0.74000
O39         O  0.77900879  0.16214831  0.73074046    -0.74400
O40         O  0.84193870  0.23042759  0.73871840    -0.74300
O41         O  0.83752032  0.29616529  0.73779635    -0.74100
C42         C  0.77386317  0.27878180  0.85716752     0.77700
C43         C  0.65109432  0.22955868  0.78428307     0.78200
C44         C  0.71735806  0.35176488  0.73796111     0.77100
C45         C  0.74775417  0.22269931  0.64948095     0.77500
C46         C  0.77757856  0.14314562  0.76293691     0.78600
C47         C  0.85635101  0.26393473  0.72934517     0.77700
C48         C  0.62372854  0.50279714  0.74652560    -0.02000
C49         C  0.73497430  0.62654211  0.51053224    -0.02000
Zn50       Zn  0.78711257  0.71198511  0.28612958     1.49700
Zn51       Zn  0.78355194  0.79409262  0.24447610     1.49400
Zn52       Zn  0.74667509  0.71299678  0.20174393     1.49100
Zn53       Zn  0.70478116  0.75145692  0.28123330     1.49500
O54         O  0.75484127  0.74327898  0.25246130    -1.83600
O55         O  0.83950857  0.73378753  0.29527917    -0.74200
O56         O  0.78185134  0.80472827  0.18574182    -0.74000
O57         O  0.77528972  0.65628830  0.20120542    -0.73600
O58         O  0.84141757  0.79405114  0.26866150    -0.74200
O59         O  0.79631428  0.66021666  0.26327165    -0.73800
O60         O  0.76281440  0.74821714  0.15516482    -0.74400
O61         O  0.65815054  0.73273135  0.24727257    -0.73800
O62         O  0.74969140  0.84109723  0.26337517    -0.74600
O63         O  0.68681812  0.71118543  0.19157209    -0.74000
O64         O  0.69343185  0.81063266  0.28063337    -0.74400
O65         O  0.70596725  0.72745615  0.33881035    -0.74300
O66         O  0.76740596  0.70401381  0.33954968    -0.74100
C67         C  0.85771811  0.76596204  0.28850895     0.77700
C68         C  0.77166117  0.78537609  0.15448759     0.78200
C69         C  0.79389805  0.64119728  0.23082090     0.77100
C70         C  0.65590909  0.72188061  0.21085427     0.77500
C71         C  0.71280222  0.84211242  0.27196226     0.78600
C72         C  0.73486061  0.71031739  0.35681723     0.77700
C73         C  0.73904436  0.88186964  0.01271118    -0.02000
C74         C  0.50673034  0.74821949  0.11997728    -0.02000
C75         C  0.37087131  0.00622335  0.75516705    -0.02000
C76         C  0.75242800  0.37537991  0.00179417    -0.02000
C77         C  0.25233799  0.62409284  0.99118394    -0.02000
C78         C  0.12345083  0.50043938  0.74478916    -0.02000
C79         C  0.75864910  0.12555524  0.50238839    -0.02000
C80         C  0.01220750  0.75703249  0.37040799    -0.02000
Zn81       Zn  0.27151154  0.78942514  0.19420918     1.49700
Zn82       Zn  0.30322721  0.74364989  0.27392583     1.49400
Zn83       Zn  0.22570710  0.78822921  0.27029157     1.49100
Zn84       Zn  0.22521199  0.71123104  0.22820355     1.49500
O85         O  0.25896691  0.75622108  0.23921183    -1.83600
O86         O  0.33176262  0.79044314  0.19044222    -0.74200
O87         O  0.29623421  0.77382084  0.32788364    -0.74000
O88         O  0.23999122  0.84447141  0.26755721    -0.73600
O89         O  0.35357969  0.75787166  0.24402190    -0.74200
O90         O  0.24452455  0.84669284  0.20220745    -0.73800
O91         O  0.23055052  0.77401643  0.32588738    -0.74400
O92         O  0.17101055  0.71794815  0.25787256    -0.73800
O93         O  0.30727929  0.68294587  0.27833412    -0.74600
O94         O  0.16878067  0.78376635  0.25674926    -0.74000
O95         O  0.25523629  0.66111804  0.24295894    -0.74400
O96         O  0.22290203  0.70523801  0.16880386    -0.74300
O97         O  0.25693514  0.75635578  0.14374753    -0.74100
C98         C  0.35960039  0.77413681  0.21042749     0.77700
C99         C  0.26271617  0.78196082  0.34387579     0.78200
C100        C  0.23602284  0.86363707  0.23566187     0.77100
C101        C  0.15268018  0.75077662  0.26529547     0.77500
C102        C  0.28783324  0.65466935  0.26122703     0.78600
C103        C  0.23955403  0.72238121  0.13949296     0.77700
C104        C  0.24815556  0.87557638  0.49146009    -0.02000
C105        C  0.87897302  0.48657816  0.23804221    -0.02000
Zn106      Zn  0.72149189  0.20883733  0.28102468     1.49700
Zn107      Zn  0.76469606  0.20902371  0.19938316     1.49400
Zn108      Zn  0.71701347  0.28775262  0.23368653     1.49100
Zn109      Zn  0.79925393  0.25538696  0.27794989     1.49500
O110        O  0.75130656  0.24129835  0.24692925    -1.83600
O111        O  0.71259149  0.15593829  0.26082677    -0.74200
O112        O  0.75169987  0.24197580  0.15015950    -0.74000
O113        O  0.65849825  0.28329489  0.25703209    -0.73600
O114        O  0.73738534  0.15172914  0.20010496    -0.74200
O115        O  0.66891329  0.22754603  0.28960120    -0.73800
O116        O  0.71726853  0.29390246  0.17351200    -0.74400
O117        O  0.80091676  0.31467446  0.28085417    -0.73800
O118        O  0.82454208  0.20766789  0.19352004    -0.74600
O119        O  0.74725296  0.33858897  0.24990704    -0.74000
O120        O  0.84806782  0.24505756  0.24336828    -0.74400
O121        O  0.80282951  0.22936421  0.33480854    -0.74300
O122        O  0.74351928  0.20109522  0.33246229    -0.74100
C123        C  0.71772172  0.13669559  0.22894625     0.77700
C124        C  0.73467451  0.27560642  0.14501167     0.78200
C125        C  0.64587362  0.25507397  0.27928486     0.77100
C126        C  0.78169705  0.34342656  0.26541651     0.77500
C127        C  0.85304552  0.22687308  0.21021353     0.78600
C128        C  0.77548557  0.20827266  0.35069216     0.77700
C129        C  0.62208639  0.99088429  0.24967840    -0.02000
C130        C  0.49858927  0.24731399  0.86909707    -0.02000
Zn131      Zn  0.21323388  0.20661499  0.76539146     1.49700
Zn132      Zn  0.21796568  0.28143573  0.72333311     1.49400
Zn133      Zn  0.26561174  0.28391198  0.79475891     1.49100
Zn134      Zn  0.29024904  0.23448976  0.71431397     1.49500
O135        O  0.24985615  0.24845635  0.75220881    -1.83600
O136        O  0.15744300  0.21627942  0.74021355    -0.74200
O137        O  0.18691145  0.31664029  0.75722455    -0.74000
O138        O  0.25091335  0.25455055  0.84558589    -0.73600
O139        O  0.18068405  0.25162455  0.69059123    -0.74200
O140        O  0.21307766  0.20299215  0.82504244    -0.73800
O141        O  0.23994946  0.34133201  0.78690223    -0.74400
O142        O  0.34357322  0.24819198  0.74130046    -0.73800
O143        O  0.24915728  0.31396034  0.68773184    -0.74600
O144        O  0.32587821  0.28257680  0.79590071    -0.74000
O145        O  0.27721839  0.26168187  0.65961863    -0.74400
O146        O  0.29149170  0.17392901  0.71193969    -0.74300
O147        O  0.23975416  0.15493848  0.74895952    -0.74100
C148        C  0.15199513  0.23417684  0.70723788     0.77700
C149        C  0.20526448  0.34640997  0.77176868     0.78200
C150        C  0.23189449  0.22212222  0.85224729     0.77100
C151        C  0.35205121  0.26498995  0.77467058     0.77500
C152        C  0.26078889  0.29608423  0.65667016     0.78600
C153        C  0.27176241  0.14720608  0.73025520     0.77700
C154        C  0.99861053  0.25802506  0.62757811    -0.02000
C155        C  0.00484149  0.24467771  0.12223242    -0.02000
Zn156      Zn  0.01458956  0.03787195  0.96429104     1.49700
Zn157      Zn  0.97295146  0.95458499  0.96819571     1.49400
Zn158      Zn  0.05173307  0.96233080  0.01468912     1.49100
Zn159      Zn  0.97037435  0.00653881  0.04509748     1.49500
O160        O  0.00322812  0.99125659  0.99886019    -1.83600
O161        O  0.98995673  0.03189764  0.90682062    -0.74200
O162        O  0.99730920  0.90342871  0.95976115    -0.74000
O163        O  0.09835363  0.99820946  0.00160690    -0.73600
O164        O  0.96290088  0.97241405  0.91465250    -0.74200
O165        O  0.07412920  0.04589396  0.96244167    -0.73800
O166        O  0.05690682  0.90517638  0.98779845    -0.74400
O167        O  0.00145649  0.99460776  0.09604650    -0.73800
O168        O  0.92147860  0.94487306  0.98948852    -0.74600
O169        O  0.05537234  0.96216511  0.07501451    -0.74000
O170        O  0.91172191  0.98235169  0.04265723    -0.74400
O171        O  0.97214514  0.06664342  0.04893913    -0.74300
O172        O  0.00002850  0.08971311  0.99383426    -0.74100
C173        C  0.97031647  0.00190813  0.89287222     0.77700
C174        C  0.03043305  0.88741800  0.96648939     0.78200
C175        C  0.10256622  0.03033667  0.98199837     0.77100
C176        C  0.03539010  0.97896264  0.10269792     0.77500
C177        C  0.89885535  0.95699538  0.01665534     0.78600
C178        C  0.98703376  0.09526060  0.02904733     0.77700
Zn179      Zn  0.22210332  0.22509382  0.21660881     1.49700
Zn180      Zn  0.29556933  0.27441404  0.21468583     1.49400
Zn181      Zn  0.21703144  0.30245792  0.26247209     1.49100
Zn182      Zn  0.26744501  0.22668758  0.29387076     1.49500
O183        O  0.25240947  0.25960253  0.24902690    -1.83600
O184        O  0.22638173  0.23673178  0.15972391    -0.74200
O185        O  0.29552225  0.33473405  0.21032879    -0.74000
O186        O  0.16222352  0.29228366  0.23373560    -0.73600
O187        O  0.29176821  0.24319546  0.16058788    -0.74200
O188        O  0.16516590  0.22615609  0.22952333    -0.73800
O189        O  0.24462041  0.35475074  0.24781198    -0.74400
O190        O  0.25379174  0.25707751  0.34527881    -0.73800
O191        O  0.34640315  0.26347862  0.24505475    -0.74600
O192        O  0.21583804  0.30631114  0.32253554    -0.74000
O193        O  0.32737146  0.22575641  0.29611051    -0.74400
O194        O  0.24066749  0.17012205  0.28742544    -0.74300
O195        O  0.24063286  0.17032914  0.22196835    -0.74100
C196        C  0.25964225  0.23215385  0.14306112     0.77700
C197        C  0.27605782  0.36231704  0.22810843     0.78200
C198        C  0.14640758  0.25841807  0.22445335     0.77100
C199        C  0.23392972  0.28908832  0.35110608     0.77500
C200        C  0.35396379  0.24473526  0.27699704     0.78600
C201        C  0.23390299  0.15237898  0.25405040     0.77700
C202        C  0.13520689  0.00702438  0.24528346    -0.02000
Zn203      Zn  0.04930521  0.98084223  0.46827804     1.49700
Zn204      Zn  0.96647822  0.97611684  0.50840575     1.49400
Zn205      Zn  0.04089579  0.02232791  0.54674921     1.49100
Zn206      Zn  0.00030399  0.05702939  0.46594420     1.49500
O207        O  0.01184105  0.01047705  0.49809446    -1.83600
O208        O  0.04261310  0.92226751  0.47340564    -0.74200
O209        O  0.95696239  0.97281660  0.56853228    -0.74000
O210        O  0.09381912  0.99063648  0.54786661    -0.73600
O211        O  0.97695637  0.92128744  0.48043876    -0.74200
O212        O  0.10365390  0.99600618  0.48349537    -0.73800
O213        O  0.00641098  0.00971581  0.59362546    -0.74400
O214        O  0.01494427  0.10671621  0.49882219    -0.73800
O215        O  0.91598213  0.00546109  0.49077909    -0.74600
O216        O  0.04467504  0.08196453  0.55268920    -0.74000
O217        O  0.94029256  0.06165896  0.46507395    -0.74400
O218        O  0.02637108  0.05323610  0.40877966    -0.74300
O219        O  0.04657661  0.99035896  0.41131298    -0.74100
C220        C  0.00954359  0.90427223  0.46998922     0.77700
C221        C  0.97372107  0.99109089  0.59766405     0.78200
C222        C  0.11525934  0.98466393  0.51718929     0.77100
C223        C  0.02944983  0.11110040  0.53378908     0.77500
C224        C  0.91113645  0.04098164  0.47790325     0.78600
C225        C  0.04161244  0.02218933  0.39201894     0.77700
C226        C  0.24577287  0.13048801  0.99972561    -0.02000
Zn227      Zn  0.52565332  0.97476230  0.03587877     1.49700
Zn228      Zn  0.52361695  0.01160718  0.95769141     1.49400
Zn229      Zn  0.44603536  0.97041793  0.99622373     1.49100
Zn230      Zn  0.48408155  0.05208667  0.03562101     1.49500
O231        O  0.49185786  0.00440643  0.00427618    -1.83600
O232        O  0.58129513  0.99096385  0.02886279    -0.74200
O233        O  0.49104809  0.99447751  0.91011120    -0.74000
O234        O  0.45627530  0.91447475  0.02363473    -0.73600
O235        O  0.57774830  0.98300917  0.96371921    -0.74200
O236        O  0.52184758  0.91797347  0.02270499    -0.73800
O237        O  0.43644611  0.96819987  0.93658947    -0.74400
O238        O  0.42460023  0.05922097  0.03799335    -0.73800
O239        O  0.52782237  0.07048986  0.94857075    -0.74600
O240        O  0.39740020  0.00277643  0.01409945    -0.74000
O241        O  0.50076599  0.09980450  0.00166208    -0.74400
O242        O  0.51390323  0.04665478  0.09064361    -0.74300
O243        O  0.51343887  0.98051656  0.09227522    -0.74100
C244        C  0.59688800  0.98010324  0.99646475     0.77700
C245        C  0.45548479  0.98151471  0.90673572     0.78200
C246        C  0.49046128  0.89869355  0.03026762     0.77100
C247        C  0.39431556  0.03911652  0.02617427     0.77500
C248        C  0.51495909  0.10158669  0.96652442     0.78600
C249        C  0.52134215  0.01380788  0.10860201     0.77700
Zn250      Zn  0.47517081  0.96636032  0.53611684     1.49700
Zn251      Zn  0.51484073  0.05049454  0.53701653     1.49400
Zn252      Zn  0.55549203  0.97119814  0.49377743     1.49100
Zn253      Zn  0.47267103  0.00905549  0.45628590     1.49500
O254        O  0.50562525  0.00062667  0.50484235    -1.83600
O255        O  0.46171414  0.98988799  0.58502761    -0.74200
O256        O  0.57537584  0.06020890  0.53939632    -0.74000
O257        O  0.55643502  0.91249113  0.51713430    -0.73600
O258        O  0.48533552  0.05031968  0.59426029    -0.74200
O259        O  0.49965545  0.91702350  0.54934921    -0.73800
O260        O  0.60273258  0.00584755  0.51176262    -0.74400
O261        O  0.50598220  0.99354510  0.40811920    -0.73800
O262        O  0.49851459  0.09678581  0.50118023    -0.74600
O263        O  0.56280863  0.97122990  0.43416151    -0.74000
O264        O  0.46738998  0.06916609  0.44880491    -0.74400
O265        O  0.41727429  0.97858516  0.45584768    -0.74300
O266        O  0.42539462  0.95021057  0.51382994    -0.74100
C267        C  0.46492698  0.02040803  0.60668513     0.77700
C268        C  0.60568525  0.04118695  0.52636519     0.79800
C269        C  0.53025749  0.89759438  0.54025934     0.77100
C270        C  0.54184278  0.98180154  0.40444551     0.77500
C271        C  0.48194678  0.09963503  0.46703563     0.78600
C272        C  0.40478696  0.95532418  0.48311712     0.77700
C273        C  0.49902486  0.24707715  0.37223515    -0.02000
Zn274      Zn  0.05041503  0.46273958  0.98451036     1.49700
Zn275      Zn  0.01473082  0.54225759  0.02666121     1.49400
Zn276      Zn  0.97033255  0.50420302  0.94915427     1.49100
Zn277      Zn  0.97411665  0.46307848  0.02704244     1.49500
O278        O  0.00431509  0.49524484  0.99412706    -1.83600
O279        O  0.09984923  0.49576876  0.99883304    -0.74200
O280        O  0.99589736  0.59074803  0.99690262    -0.74000
O281        O  0.00180458  0.48770661  0.89958639    -0.73600
O282        O  0.07426111  0.55075921  0.02636651    -0.74200
O283        O  0.05681525  0.46044102  0.92482104    -0.73800
O284        O  0.96855001  0.56389367  0.94211686    -0.74400
O285        O  0.91786417  0.47669601  0.02449176    -0.73800
O286        O  0.98761528  0.53677361  0.08168861    -0.74600
O287        O  0.91398101  0.47834551  0.95891227    -0.74000
O288        O  0.99186605  0.47096138  0.08180853    -0.74400
O289        O  0.97834932  0.40543276  0.01512911    -0.74300
O290        O  0.04396879  0.40773995  0.01435532    -0.74100
C291        C  0.10366763  0.53174460  0.01161036     0.77700
C292        C  0.98162120  0.59389858  0.96196644     0.78200
C293        C  0.03733752  0.47468136  0.89556111     0.77100
C294        C  0.89789313  0.47190584  0.99284680     0.77500
C295        C  0.98165602  0.50326557  0.09867223     0.78600
C296        C  0.01144845  0.38915195  0.02216813     0.77700
Zn297      Zn  0.53172065  0.46432893  0.96468434     1.49700
Zn298      Zn  0.53739817  0.50976297  0.04169580     1.49400
Zn299      Zn  0.49086072  0.54312128  0.96543356     1.49100
Zn300      Zn  0.45596894  0.46552375  0.01162100     1.49500
O301        O  0.50212377  0.49758167  0.99785566    -1.83600
O302        O  0.58874120  0.47404342  0.97012877    -0.74200
O303        O  0.54064040  0.56917472  0.04736700    -0.74000
O304        O  0.52016003  0.53726742  0.91139939    -0.73600
O305        O  0.59270417  0.48331582  0.03511698    -0.74200
O306        O  0.51981459  0.47121567  0.90772519    -0.73800
O307        O  0.50689346  0.59329416  0.99589988    -0.74400
O308        O  0.40690340  0.49844372  0.99916138    -0.73800
O309        O  0.50843573  0.49656135  0.09191066    -0.74600
O310        O  0.43099226  0.54854429  0.96326332    -0.74000
O311        O  0.45383980  0.46351084  0.07180761    -0.74400
O312        O  0.45728708  0.41039610  0.98095048    -0.74300
O313        O  0.52268036  0.40834126  0.97800109    -0.74100
C314        C  0.60858637  0.47297224  0.00210020     0.77700
C315        C  0.52456581  0.59820412  0.02918734     0.78200
C316        C  0.52749526  0.50473077  0.89236465     0.77100
C317        C  0.40215020  0.53147368  0.98113134     0.77500
C318        C  0.47476321  0.48067006  0.09884437     0.78600
C319        C  0.48924922  0.39239827  0.97070887     0.77700
Zn320      Zn  0.95856307  0.49471126  0.54849922     1.49700
Zn321      Zn  0.95514906  0.53466060  0.46415187     1.49400
Zn322      Zn  0.03560744  0.53726775  0.51083719     1.49100
Zn323      Zn  0.99926844  0.45446630  0.46991020     1.49500
O324        O  0.98772054  0.50464150  0.49906629    -1.83600
O325        O  0.90211679  0.52027885  0.54680851    -0.74200
O326        O  0.97758113  0.58650409  0.45104952    -0.74000
O327        O  0.04545249  0.54006813  0.57010103    -0.73600
O328        O  0.90319449  0.54404651  0.48546511    -0.74200
O329        O  0.99276194  0.51040368  0.59678240    -0.73800
O330        O  0.03434030  0.59352322  0.48418774    -0.74400
O331        O  0.05823035  0.44757735  0.47328314    -0.73800
O332        O  0.94422469  0.50884986  0.41369618    -0.74600
O333        O  0.08404533  0.50474972  0.49640485    -0.74000
O334        O  0.97709262  0.45177867  0.41160608    -0.74400
O335        O  0.98122738  0.40661891  0.50194194    -0.74300
O336        O  0.95668346  0.43514461  0.55672786    -0.74100
C337        C  0.88528542  0.53796664  0.51763574     0.77700
C338        C  0.00808959  0.60683570  0.46008821     0.78200
C339        C  0.02762256  0.52530164  0.59982530     0.77100
C340        C  0.08770542  0.46814792  0.48604743     0.77500
C341        C  0.95385998  0.47719567  0.39556848     0.78600
C342        C  0.96830950  0.40443333  0.53737670     0.77700
C343        C  0.23575935  0.37778204  0.50556224    -0.02000
Zn344      Zn  0.45841148  0.45839480  0.46882161     1.49700
Zn345      Zn  0.50273691  0.53970946  0.46439107     1.49400
Zn346      Zn  0.46184059  0.50832233  0.54604220     1.49100
Zn347      Zn  0.53971725  0.46388824  0.51078651     1.49500
O348        O  0.49132177  0.49363819  0.49823978    -1.83600
O349        O  0.45671874  0.47124772  0.41333890    -0.74200
O350        O  0.48386090  0.59111042  0.49095969    -0.74000
O351        O  0.40359869  0.48534786  0.54505153    -0.73600
O352        O  0.48186924  0.53173781  0.40597044    -0.74200
O353        O  0.40326334  0.45991424  0.48395759    -0.73800
O354        O  0.46436491  0.56814536  0.54977871    -0.74400
O355        O  0.54918607  0.46862694  0.56953615    -0.73800
O356        O  0.56175011  0.54926729  0.46898398    -0.74600
O357        O  0.49482582  0.49582314  0.59547540    -0.74000
O358        O  0.58846193  0.49380953  0.49316664    -0.74400
O359        O  0.53781269  0.40543285  0.48975054    -0.74300
O360        O  0.47455549  0.40248896  0.47124273    -0.74100
C361        C  0.46421260  0.50071825  0.39156904     0.77700
C362        C  0.47519128  0.59664190  0.52744748     0.78200
C363        C  0.38542919  0.46836996  0.51575249     0.77100
C364        C  0.53076572  0.48409148  0.59883244     0.77500
C365        C  0.59147344  0.53014461  0.48262655     0.78600
C366        C  0.50787520  0.38584579  0.47614915     0.77700
C367        C  0.37791112  0.50468835  0.24002169    -0.02000
C368        C  0.00962858  0.74077408  0.87230729    -0.02000
Zn369      Zn  0.28456610  0.78339473  0.71091383     1.49700
Zn370      Zn  0.24275258  0.77819931  0.79024238     1.49400
Zn371      Zn  0.20490977  0.73656148  0.70977727     1.49100
Zn372      Zn  0.28572856  0.69939668  0.75049654     1.49500
O373        O  0.25372592  0.74816459  0.74099389    -1.83600
O374        O  0.29894329  0.83317191  0.73637501    -0.74200
O375        O  0.18425138  0.77843671  0.79797340    -0.74000
O376        O  0.20410614  0.76395291  0.65348366    -0.73600
O377        O  0.26747444  0.83553690  0.79377846    -0.74200
O378        O  0.25990404  0.79800019  0.66212810    -0.73800
O379        O  0.15719145  0.75128371  0.74342870    -0.74400
O380        O  0.25294421  0.65072825  0.73379294    -0.73800
O381        O  0.25725051  0.74420214  0.83683838    -0.74600
O382        O  0.19723171  0.67641648  0.70853367    -0.74000
O383        O  0.28569960  0.68997974  0.81068529    -0.74400
O384        O  0.34212864  0.70116318  0.72171021    -0.74300
O385        O  0.33350997  0.76053953  0.69552130    -0.74100
C386        C  0.29046240  0.85128288  0.76817379     0.77700
C387        C  0.15449008  0.76416675  0.77911630     0.78200
C388        C  0.22977989  0.78942236  0.64141266     0.77100
C389        C  0.21729419  0.64686157  0.72127408     0.77500
C390        C  0.27043934  0.70874274  0.84023268     0.78600
C391        C  0.35436801  0.72979845  0.69968901     0.77700
C392        C  0.50934154  0.74255866  0.61847577    -0.02000
C393        C  0.39292560  0.73020306  0.67777790    -0.04900
C394        C  0.42344205  0.70324919  0.68598374    -0.32400
C395        C  0.46076576  0.70685768  0.66744043     0.36900
C396        C  0.46898527  0.73904984  0.64100934    -0.05300
C397        C  0.43711197  0.76411666  0.63122274    -0.32300
C398        C  0.39994594  0.75988018  0.64865188     0.36800
H399        H  0.41859877  0.67947815  0.70703459     0.17200
O400        O  0.48897655  0.67837087  0.67499450    -0.59800
H401        H  0.44008317  0.78671504  0.60870907     0.17200
O402        O  0.37049087  0.78528485  0.63636713    -0.59800
H403        H  0.35642765  0.77071817  0.61464519     0.44200
H404        H  0.49489019  0.68034121  0.70378811     0.44100
C405        C  0.04607753  0.74117546  0.84385812    -0.04900
C406        C  0.08388264  0.73894506  0.86209125    -0.32400
C407        C  0.11877314  0.74672815  0.84146650     0.36900
C408        C  0.11722597  0.75787079  0.80128716    -0.05300
C409        C  0.08037064  0.75901393  0.78207749    -0.32300
C410        C  0.04499257  0.75121640  0.80265148     0.36800
H411        H  0.08626817  0.73174688  0.89332073     0.17200
O412        O  0.15448248  0.74151646  0.86057110    -0.59800
H413        H  0.07880556  0.76719641  0.75105593     0.17200
O414        O  0.01001315  0.75794943  0.78287416    -0.59800
H415        H  0.00853391  0.73718134  0.76161840     0.44200
H416        H  0.15772292  0.76528056  0.87820280     0.44100
C417        C  0.48551792  0.63499199  0.54692229    -0.04900
C418        C  0.51563908  0.63444197  0.57578123    -0.32400
C419        C  0.52714679  0.66908155  0.59665791     0.36900
C420        C  0.50726393  0.70579100  0.58973058    -0.05300
C421        C  0.47744485  0.70581756  0.55961061    -0.32300
C422        C  0.46733436  0.67124683  0.53778217     0.36800
H423        H  0.53018338  0.60645943  0.58272583     0.17200
O424        O  0.55483444  0.66524026  0.62639703    -0.59800
H425        H  0.46069114  0.73277021  0.55397253     0.17200
O426        O  0.43785505  0.67271985  0.50961392    -0.59800
H427        H  0.45137373  0.68087468  0.48486589     0.44200
H428        H  0.57964069  0.65649347  0.61321772     0.44100
C429        C  0.44892453  0.49822556  0.34993722    -0.04900
C430        C  0.45406011  0.52993900  0.32378151    -0.32400
C431        C  0.43413779  0.53024355  0.28707959     0.36900
C432        C  0.40599063  0.49972118  0.27679570    -0.05300
C433        C  0.40537119  0.46563414  0.30077018    -0.32300
C434        C  0.42608006  0.46472060  0.33678625     0.36800
H435        H  0.47255021  0.55525152  0.33219535     0.17200
O436        O  0.43974114  0.56246610  0.26292351    -0.59800
H437        H  0.38862292  0.43930296  0.29224366     0.17200
O438        O  0.42208238  0.43119845  0.35958303    -0.59800
H439        H  0.44516896  0.41423238  0.35265764     0.44200
H440        H  0.46573681  0.55780742  0.25002041     0.44100
C441        C  0.27448820  0.40432160  0.50925133    -0.04900
C442        C  0.30152794  0.40068012  0.54180339    -0.32400
C443        C  0.33440953  0.42573773  0.54702601     0.36900
C444        C  0.34416447  0.45338482  0.51790585    -0.05300
C445        C  0.31938152  0.45619135  0.48420477    -0.32300
C446        C  0.28499208  0.43237337  0.47976200     0.36800
H447        H  0.29913672  0.37729328  0.56338242     0.17200
O448        O  0.35953845  0.41943799  0.57853846    -0.59800
H449        H  0.32778868  0.47573320  0.46016737     0.17200
O450        O  0.26301044  0.43518251  0.44545064    -0.59800
H451        H  0.25194092  0.46260496  0.44544762     0.44200
H452        H  0.35070666  0.43841493  0.59948997     0.44100
C453        C  0.12586442  0.44712743  0.49307651    -0.04900
C454        C  0.12495965  0.40541482  0.49721413    -0.32400
C455        C  0.15934941  0.38386642  0.50550328     0.36900
C456        C  0.19691596  0.40339634  0.50681812    -0.05300
C457        C  0.19681386  0.44570575  0.50794498    -0.32300
C458        C  0.16190717  0.46741017  0.50076498     0.36800
H459        H  0.09727237  0.38902761  0.49412741     0.17200
O460        O  0.15660421  0.34296234  0.50726105    -0.59800
H461        H  0.22360621  0.46258474  0.51380495     0.17200
O462        O  0.16350729  0.50840000  0.50152159    -0.59800
H463        H  0.17131800  0.51610428  0.47432680     0.44200
H464        H  0.14751925  0.33721720  0.53459624     0.44100
C465        C  0.45635674  0.48844417  0.13763163    -0.04900
C466        C  0.43994679  0.52638545  0.14473170    -0.32400
C467        C  0.41666600  0.53417653  0.17843166     0.36900
C468        C  0.40812927  0.50288151  0.20517988    -0.05300
C469        C  0.42891023  0.46619598  0.19965863    -0.32300
C470        C  0.45208302  0.45874010  0.16605148     0.36800
H471        H  0.44434208  0.54998625  0.12334526     0.17200
O472        O  0.40258593  0.57217962  0.18433118    -0.59800
H473        H  0.42473829  0.44196729  0.22033597     0.17200
O474        O  0.46897673  0.42186080  0.16050895    -0.59800
H475        H  0.49626636  0.42446428  0.17154100     0.44200
H476        H  0.42630902  0.58915973  0.18966162     0.44100
C477        C  0.98799864  0.63143409  0.94068337    -0.04900
C478        C  0.01763875  0.63148015  0.91177712    -0.32400
C479        C  0.02672018  0.66581759  0.89023547     0.36900
C480        C  0.00591364  0.70214772  0.89779196    -0.05300
C481        C  0.97560497  0.70115055  0.92711018    -0.32300
C482        C  0.96726958  0.66664510  0.94889981     0.36800
H483        H  0.03397137  0.60423252  0.90553600     0.17200
O484        O  0.05497943  0.66244053  0.86116212    -0.59800
H485        H  0.95808674  0.72763700  0.93306727     0.17200
O486        O  0.93871967  0.66763427  0.97779336    -0.59800
H487        H  0.91379145  0.65925449  0.96421354     0.44200
H488        H  0.04448358  0.64299140  0.84138420     0.44100
C489        C  0.50380964  0.28011308  0.40518794    -0.04900
C490        C  0.54040362  0.30065800  0.41148565    -0.32400
C491        C  0.54396227  0.33252262  0.43851930     0.36900
C492        C  0.51104207  0.34434960  0.46089947    -0.05300
C493        C  0.47682549  0.32010612  0.45996056    -0.32300
C494        C  0.47331544  0.28778487  0.43316723     0.36800
H495        H  0.56686785  0.29281750  0.39523714     0.17200
O496        O  0.57861531  0.35419108  0.43991735    -0.59800
H497        H  0.45157437  0.32782296  0.47832234     0.17200
O498        O  0.43943911  0.26472950  0.43350683    -0.59800
H499        H  0.41696593  0.28306007  0.42832654     0.44200
H500        H  0.59715239  0.33807999  0.45622622     0.44100
C501        C  0.53286474  0.85781774  0.55904070    -0.04900
C502        C  0.52190843  0.85599050  0.59908766    -0.32400
C503        C  0.51282144  0.81982849  0.61733884     0.36900
C504        C  0.51435834  0.78313015  0.59576779    -0.05300
C505        C  0.52667596  0.78518032  0.55541252    -0.32300
C506        C  0.53537191  0.82196112  0.53714054     0.36800
H507        H  0.51867379  0.88340628  0.61626947     0.17200
O508        O  0.50106510  0.82085520  0.65631792    -0.59800
H509        H  0.53058379  0.75835247  0.53772780     0.17200
O510        O  0.54389229  0.82259522  0.49737607    -0.59800
H511        H  0.57328585  0.82283650  0.49594939     0.44200
H512        H  0.52440998  0.83087147  0.67170893     0.44100
C513        C  0.49452772  0.20713047  0.39634236    -0.04900
C514        C  0.45844323  0.18474584  0.39661513    -0.32400
C515        C  0.45358338  0.15049125  0.41980612     0.36900
C516        C  0.48383419  0.13840478  0.44574272    -0.05300
C517        C  0.51882841  0.16130161  0.44765711    -0.32300
C518        C  0.52471253  0.19453985  0.42304973     0.36800
H519        H  0.43268411  0.19388006  0.37989800     0.17200
O520        O  0.41869140  0.12929714  0.41718720    -0.59800
H521        H  0.54255381  0.15255533  0.46744970     0.17200
O522        O  0.55987345  0.21523948  0.42617532    -0.59800
H523        H  0.58053721  0.19697950  0.41558885     0.44200
H524        H  0.40063851  0.14233709  0.43652997     0.44100
C525        C  0.28498651  0.10519063  0.00362763    -0.04900
C526        C  0.28456185  0.06287659  0.00804032    -0.32400
C527        C  0.31920816  0.04099790  0.01619940     0.36900
C528        C  0.35579165  0.06079392  0.02170333    -0.05300
C529        C  0.35660907  0.10260163  0.01787064    -0.32300
C530        C  0.32231497  0.12453256  0.00901321     0.36800
H531        H  0.25731142  0.04588319  0.00654921     0.17200
O532        O  0.31670129  0.00015381  0.01872318    -0.59800
H533        H  0.38442705  0.11877260  0.02082706     0.17200
O534        O  0.32576453  0.16525690  0.00543865    -0.59800
H535        H  0.33186668  0.17553383  0.03249306     0.44200
H536        H  0.31416432  0.99460569  0.04752025     0.44100
C537        C  0.05730421  0.02164530  0.35061047    -0.04900
C538        C  0.05996975  0.98467999  0.33021823    -0.32400
C539        C  0.08344820  0.97989605  0.29606570     0.36900
C540        C  0.10664865  0.01202247  0.28187595    -0.05300
C541        C  0.09952361  0.05019332  0.29979406    -0.32300
C542        C  0.07644162  0.05484298  0.33420510     0.36800
H543        H  0.04494474  0.95860993  0.34181362     0.17200
O544        O  0.08536337  0.94285329  0.27833147    -0.59800
H545        H  0.11246104  0.07711883  0.28787995     0.17200
O546        O  0.07449024  0.09162446  0.35253041    -0.59800
H547        H  0.10032764  0.09492265  0.36676742     0.44200
H548        H  0.05985038  0.93949842  0.26398270     0.44100
C549        C  0.29335022  0.40324937  0.22864539    -0.04900
C550        C  0.31365964  0.41649405  0.19526850    -0.32400
C551        C  0.33839203  0.45023602  0.19698905     0.36900
C552        C  0.34605067  0.47042316  0.23408280    -0.05300
C553        C  0.32098705  0.46002369  0.26599457    -0.32300
C554        C  0.29582709  0.42631877  0.26390634     0.36800
H555        H  0.31094572  0.40002624  0.16746803     0.17200
O556        O  0.35480253  0.46263148  0.16192326    -0.59800
H557        H  0.32302260  0.47650015  0.29380913     0.17200
O558        O  0.27599010  0.41469829  0.29737558    -0.59800
H559        H  0.29523685  0.39829618  0.31243805     0.44200
H560        H  0.33224731  0.47003445  0.14441812     0.44100
C561        C  0.23691663  0.35429417  0.46445615    -0.04900
C562        C  0.20705070  0.36004617  0.43502011    -0.32400
C563        C  0.20440429  0.33700994  0.40041503     0.36900
C564        C  0.23393788  0.30908719  0.39108539    -0.05300
C565        C  0.26643904  0.30571443  0.41751604    -0.32300
C566        C  0.26857827  0.32864400  0.45315797     0.36800
H567        H  0.18507275  0.38323600  0.43725957     0.17200
O568        O  0.17219391  0.34217636  0.37583539    -0.59800
H569        H  0.29095454  0.28621020  0.40997223     0.17200
O570        O  0.30151744  0.32522300  0.47699174    -0.59800
H571        H  0.32153494  0.34351080  0.46543282     0.44200
H572        H  0.17753751  0.36729288  0.36134451     0.44100
C573        C  0.46295482  0.25200042  0.34336674    -0.04900
C574        C  0.45678092  0.22123858  0.31447185    -0.32400
C575        C  0.42229219  0.21925625  0.29122074     0.36900
C576        C  0.39347470  0.24887222  0.29528643    -0.05300
C577        C  0.40109663  0.28203325  0.32000445    -0.32300
C578        C  0.43594016  0.28456798  0.34299284     0.36800
H579        H  0.47767374  0.19679930  0.31199788     0.17200
O580        O  0.41613761  0.18723363  0.26614102    -0.59800
H581        H  0.37949757  0.30593383  0.32203410     0.17200
O582        O  0.44284802  0.31904809  0.36432501    -0.59800
H583        H  0.44889268  0.33978207  0.34441813     0.44200
H584        H  0.43016066  0.19419816  0.24129775     0.44100
C585        C  0.16377438  0.04384344  0.24412818    -0.04900
C586        C  0.18577794  0.05296351  0.27932979    -0.32400
C587        C  0.20952874  0.08722265  0.28309977     0.36900
C588        C  0.21392627  0.11268968  0.25071804    -0.05300
C589        C  0.19585929  0.10156039  0.21422425    -0.32300
C590        C  0.17160043  0.06746082  0.21050236     0.36800
H591        H  0.18263025  0.03441242  0.30524549     0.17200
O592        O  0.22712965  0.09604201  0.31896938    -0.59800
H593        H  0.19964649  0.11994334  0.18820348     0.17200
O594        O  0.15651934  0.05762935  0.17378417    -0.59800
H595        H  0.17961935  0.04842382  0.15783856     0.44200
H596        H  0.25258889  0.08111081  0.31882585     0.44100
C597        C  0.24617046  0.15841412  0.03761414    -0.04900
C598        C  0.24960146  0.20083763  0.03502471    -0.32400
C599        C  0.25593653  0.22523725  0.06868392     0.36900
C600        C  0.25980447  0.20803864  0.10614648    -0.05300
C601        C  0.25639632  0.16646992  0.10952374    -0.32300
C602        C  0.24963093  0.14180906  0.07617733     0.36800
H603        H  0.24910917  0.21596446  0.00691392     0.17200
O604        O  0.25770330  0.26597656  0.06465349    -0.59800
H605        H  0.25832977  0.15291512  0.13856727     0.17200
O606        O  0.24813307  0.10113795  0.08138519    -0.59800
H607        H  0.22482291  0.09609052  0.09843101     0.44200
H608        H  0.28538310  0.27175667  0.05651151     0.44100
C609        C  0.01764311  0.77906925  0.89898440    -0.04900
C610        C  0.02698794  0.77731423  0.94025349    -0.32400
C611        C  0.03506272  0.81211027  0.96298773     0.36900
C612        C  0.03673892  0.84948866  0.94456540    -0.05300
C613        C  0.03122426  0.85114296  0.90338538    -0.32300
C614        C  0.02096644  0.81722290  0.88096732     0.36800
H615        H  0.02803380  0.74920591  0.95564525     0.17200
O616        O  0.03862344  0.80945251  0.00345496    -0.59800
H617        H  0.03173140  0.87987015  0.88872675     0.17200
O618        O  0.01417323  0.82183049  0.84106382    -0.59800
H619        H  0.98932606  0.83748571  0.83888888     0.44200
H620        H  0.06756346  0.81013962  0.00885572     0.44100
C621        C  0.13959320  0.05348224  0.98696358    -0.04900
C622        C  0.16905743  0.05300292  0.95802523    -0.32400
C623        C  0.20319592  0.07695469  0.96240548     0.36900
C624        C  0.20862141  0.10232725  0.99646411    -0.05300
C625        C  0.17775751  0.10301636  0.02473433    -0.32300
C626        C  0.14420828  0.07842794  0.02055133     0.36800
H627        H  0.16554638  0.03420356  0.93182030     0.17200
O628        O  0.23159851  0.07499867  0.93335327    -0.59800
H629        H  0.17844485  0.12338792  0.04979451     0.17200
O630        O  0.11499050  0.08028822  0.04879542    -0.59800
H631        H  0.12358752  0.06166517  0.06987626     0.44200
H632        H  0.22003486  0.08900772  0.91021252     0.44100
C633        C  0.05455034  0.98401287  0.14241657    -0.04900
C634        C  0.05465335  0.02156959  0.16180148    -0.32400
C635        C  0.07988001  0.02956868  0.19474332     0.36900
C636        C  0.10627355  0.99979856  0.20888230    -0.05300
C637        C  0.10170422  0.96091542  0.19168247    -0.32300
C638        C  0.07760905  0.95342582  0.15850954     0.36800
H639        H  0.03650823  0.04551841  0.15022708     0.17200
O640        O  0.07856311  0.06650481  0.21289589    -0.59800
H641        H  0.11672046  0.93524372  0.20376924     0.17200
O642        O  0.07723078  0.91584849  0.14172522    -0.59800
H643        H  0.05393387  0.90227163  0.15334135     0.44200
H644        H  0.08564897  0.08626842  0.19210722     0.44100
C645        C  0.00480470  0.28486844  0.09802391    -0.04900
C646        C  0.97776323  0.28985430  0.06619772    -0.32400
C647        C  0.98108052  0.32202630  0.03968013     0.36900
C648        C  0.01092690  0.35137769  0.04516239    -0.05300
C649        C  0.03428821  0.34959109  0.07943014    -0.32300
C650        C  0.03013010  0.31836768  0.10671055     0.36800
H651        H  0.95493001  0.26754712  0.06069948     0.17200
O652        O  0.95462286  0.32470938  0.00872980    -0.59800
H653        H  0.05384545  0.37441782  0.08687727     0.17200
O654        O  0.04711768  0.32365868  0.14362469    -0.59800
H655        H  0.07545357  0.33043262  0.13924613     0.44200
H656        H  0.96556483  0.30726484  0.98747604     0.44100
C657        C  0.04193661  0.24362935  0.15051794    -0.04900
C658        C  0.03949825  0.23876945  0.19225864    -0.32400
C659        C  0.07282966  0.24465364  0.21712003     0.36900
C660        C  0.10949310  0.25557671  0.20072454    -0.05300
C661        C  0.11330721  0.25548737  0.15933579    -0.32300
C662        C  0.08062218  0.24807349  0.13441067     0.36800
H663        H  0.01205922  0.22985117  0.20608841     0.17200
O664        O  0.06956412  0.23837441  0.25715401    -0.59800
H665        H  0.14212707  0.26072555  0.14610433     0.17200
O666        O  0.08622165  0.24902193  0.09409868    -0.59800
H667        H  0.09576016  0.22193207  0.08676846     0.44200
H668        H  0.05779624  0.26325384  0.26809706     0.44100
C669        C  0.99415970  0.13411723  0.05029060    -0.04900
C670        C  0.99982042  0.13307084  0.09158014    -0.32400
C671        C  0.00767496  0.16772975  0.11388869     0.36900
C672        C  0.00879169  0.20585342  0.09552443    -0.05300
C673        C  0.00887670  0.20579641  0.05334452    -0.32300
C674        C  0.00077734  0.17068731  0.03097580     0.36800
H675        H  0.99810809  0.10492697  0.10715624     0.17200
O676        O  0.01214219  0.16414481  0.15423707    -0.59800
H677        H  0.01448648  0.23272476  0.03698171     0.17200
O678        O  0.99789947  0.17289120  0.99041325    -0.59800
H679        H  0.02567767  0.17421408  0.98085998     0.44200
H680        H  0.98550611  0.15720746  0.16456663     0.44100
C681        C  0.99295702  0.29668113  0.60261985    -0.04900
C682        C  0.96170856  0.29746246  0.57407492    -0.32400
C683        C  0.95368250  0.33158290  0.55145054     0.36900
C684        C  0.97427355  0.36716091  0.55954199    -0.05300
C685        C  0.00331572  0.36774149  0.58933626    -0.32300
C686        C  0.01353140  0.33327765  0.61018196     0.36800
H687        H  0.94391943  0.27089206  0.56863637     0.17200
O688        O  0.92556930  0.32987268  0.52188386    -0.59800
H689        H  0.01881554  0.39538229  0.59618537     0.17200
O690        O  0.04161182  0.33697388  0.63970551    -0.59800
H691        H  0.06667118  0.34480741  0.62634518     0.44200
H692        H  0.90028777  0.33742046  0.53489783     0.44100
C693        C  0.02301969  0.14919710  0.55595538    -0.04900
C694        C  0.01455408  0.14706910  0.59661059    -0.32400
C695        C  0.00353730  0.18090202  0.61872797     0.36900
C696        C  0.00138352  0.21920918  0.60080656    -0.05300
C697        C  0.01002015  0.22077039  0.55950174    -0.32300
C698        C  0.02017539  0.18642696  0.53734135     0.36800
H699        H  0.01556842  0.11853574  0.61155524     0.17200
O700        O  0.99683567  0.17640962  0.65861610    -0.59800
H701        H  0.01160759  0.24886481  0.54412165     0.17200
O702        O  0.02846281  0.18994004  0.49769419    -0.59800
H703        H  0.05753007  0.19470373  0.49645297     0.44200
H704        H  0.97284599  0.15915767  0.66064927     0.44100
C705        C  0.11245740  0.23824880  0.68824792    -0.04900
C706        C  0.11089869  0.25075673  0.64861739    -0.32400
C707        C  0.07493966  0.25905729  0.62980591     0.36900
C708        C  0.03860095  0.25619315  0.65074731    -0.05300
C709        C  0.04054642  0.24392844  0.69093651    -0.32300
C710        C  0.07683482  0.23528660  0.70955808     0.36800
H711        H  0.13794307  0.25416596  0.63163514     0.17200
O712        O  0.07565766  0.27081620  0.59084513    -0.59800
H713        H  0.01392884  0.23911351  0.70803664     0.17200
O714        O  0.07699296  0.22402245  0.74860187    -0.59800
H715        H  0.07476639  0.24931869  0.76410695     0.44200
H716        H  0.08704628  0.24807066  0.57563225     0.44100
C717        C  0.25144641  0.31479094  0.61772341    -0.04900
C718        C  0.25180540  0.29221935  0.58226979    -0.32400
C719        C  0.24146309  0.30946990  0.54563367     0.36900
C720        C  0.23334089  0.35110514  0.54346932    -0.05300
C721        C  0.22732297  0.37149867  0.58000085    -0.32300
C722        C  0.23680505  0.35431662  0.61626529     0.36800
H723        H  0.25924307  0.26074395  0.58300626     0.17200
O724        O  0.23835935  0.28474242  0.51313563    -0.59800
H725        H  0.21927118  0.40283356  0.58041646     0.17200
O726        O  0.23249950  0.37726763  0.65002407    -0.59800
H727        H  0.25716868  0.39341965  0.65210902     0.44200
H728        H  0.20983190  0.27772702  0.51115295     0.44100
C729        C  0.23641365  0.20265917  0.89105768    -0.04900
C730        C  0.20508831  0.20122069  0.91789285    -0.32400
C731        C  0.20834652  0.17891637  0.95283410     0.36900
C732        C  0.24334012  0.15635889  0.96133512    -0.05300
C733        C  0.27406751  0.15729923  0.93299338    -0.32300
C734        C  0.27122465  0.18101507  0.89909340     0.36800
H735        H  0.17791368  0.21732670  0.91173265     0.17200
O736        O  0.17731216  0.17997679  0.97909849    -0.59800
H737        H  0.30043023  0.13935794  0.93623106     0.17200
O738        O  0.30225119  0.18145436  0.87289431    -0.59800
H739        H  0.31750030  0.20605192  0.87955406     0.44200
H740        H  0.15570087  0.16427009  0.96627167     0.44100
C741        C  0.49649864  0.28647931  0.89507182    -0.04900
C742        C  0.46259475  0.29297225  0.91936490    -0.32400
C743        C  0.45913307  0.32681631  0.94442644     0.36900
C744        C  0.48968163  0.35543618  0.94569176    -0.05300
C745        C  0.52171279  0.35083721  0.91950583    -0.32300
C746        C  0.52494138  0.31799529  0.89378412     0.36800
H747        H  0.43895933  0.27090250  0.91951900     0.17200
O748        O  0.42640510  0.33094953  0.96815484    -0.59800
H749        H  0.54407302  0.37412940  0.91742829     0.17200
O750        O  0.55327490  0.31989935  0.86462695    -0.59800
H751        H  0.57917848  0.32378601  0.87831886     0.44200
H752        H  0.40563949  0.34246885  0.95078399     0.44100
C753        C  0.51215873  0.13932032  0.94347692    -0.04900
C754        C  0.51062374  0.13674652  0.90182612    -0.32400
C755        C  0.50340256  0.17034509  0.87834804     0.36900
C756        C  0.49851546  0.20889713  0.89592230    -0.05300
C757        C  0.50054335  0.21096611  0.93817920    -0.32300
C758        C  0.50659637  0.17692612  0.96153565     0.36800
H759        H  0.51418875  0.10809538  0.88694701     0.17200
O760        O  0.50339596  0.16551916  0.83777343    -0.59800
H761        H  0.49966530  0.23902525  0.95413434     0.17200
O762        O  0.50769602  0.18110491  0.00210578    -0.59800
H763        H  0.53595700  0.18621099  0.00879027     0.44200
H764        H  0.48065643  0.14758912  0.83137482     0.44100
C765        C  0.46158815  0.24995068  0.84065297    -0.04900
C766        C  0.43150490  0.22037414  0.83968858    -0.32400
C767        C  0.39805246  0.22376648  0.81500074     0.36900
C768        C  0.39162162  0.25857447  0.79286317    -0.05300
C769        C  0.42047485  0.28862484  0.79376339    -0.32300
C770        C  0.45548042  0.28423215  0.81633700     0.36800
H771        H  0.43276177  0.19456085  0.85855534     0.17200
O772        O  0.37042194  0.19356081  0.81441668    -0.59800
H773        H  0.41566316  0.31591581  0.77739615     0.17200
O774        O  0.48276539  0.31476855  0.81597275    -0.59800
H775        H  0.49505000  0.31374329  0.78925449     0.44200
H776        H  0.38057311  0.17372262  0.79479339     0.44100
C777        C  0.59874447  0.99059539  0.28976523    -0.04900
C778        C  0.60914594  0.01636112  0.32175307    -0.32400
C779        C  0.59085148  0.01324920  0.35893268     0.36900
C780        C  0.56118122  0.98434980  0.36528224    -0.05300
C781        C  0.55063927  0.95831540  0.33433721    -0.32300
C782        C  0.56954321  0.96054737  0.29730212     0.36800
H783        H  0.63257248  0.03829277  0.31886785     0.17200
O784        O  0.60181369  0.03916159  0.38895359    -0.59800
H785        H  0.52832177  0.93546738  0.33914037     0.17200
O786        O  0.56008264  0.93232967  0.26887729    -0.59800
H787        H  0.53178530  0.93679694  0.26199526     0.44200
H788        H  0.62616719  0.02749752  0.40072431     0.44100
C789        C  0.59363521  0.99390998  0.21287123    -0.04900
C790        C  0.55306405  0.00524267  0.21651873    -0.32400
C791        C  0.52932924  0.01379895  0.18317670     0.36900
C792        C  0.54572716  0.01218560  0.14508745    -0.05300
C793        C  0.58555521  0.00101270  0.14086600    -0.32300
C794        C  0.60951258  0.99275432  0.17388455     0.36800
H795        H  0.53954103  0.00950208  0.24524867     0.17200
O796        O  0.49028819  0.02418119  0.18820116    -0.59800
H797        H  0.59826953  0.99827547  0.11144888     0.17200
O798        O  0.64855858  0.98288308  0.16769137    -0.59800
H799        H  0.66142329  0.00751911  0.15771830     0.44200
H800        H  0.47616066  0.99871837  0.19348236     0.44100
C801        C  0.69540225  0.09856539  0.22672927    -0.04900
C802        C  0.65470189  0.10107151  0.23473288    -0.32400
C803        C  0.63208252  0.06742557  0.24424048     0.36900
C804        C  0.64942853  0.02877386  0.24480259    -0.05300
C805        C  0.69062791  0.02648411  0.23543106    -0.32300
C806        C  0.71361685  0.06097545  0.22812430     0.36800
H807        H  0.64048237  0.13009541  0.23548397     0.17200
O808        O  0.59296627  0.07290567  0.25419169    -0.59800
H809        H  0.70566729  0.99813409  0.23304368     0.17200
O810        O  0.75393243  0.05768390  0.22362779    -0.59800
H811        H  0.76473116  0.05571466  0.25102297     0.44200
H812        H  0.57986792  0.08365664  0.23011966     0.44100
C813        C  0.60474771  0.25216477  0.29547366    -0.04900
C814        C  0.58047454  0.28569430  0.29987545    -0.32400
C815        C  0.54535763  0.28353153  0.32229545     0.36900
C816        C  0.53515967  0.24802714  0.34333149    -0.05300
C817        C  0.55735076  0.21360052  0.33486281    -0.32300
C818        C  0.59111711  0.21525326  0.31102338     0.36800
H819        H  0.58938124  0.31401113  0.28731386     0.17200
O820        O  0.52286299  0.31742012  0.32619802    -0.59800
H821        H  0.54875472  0.18486289  0.34651895     0.17200
O822        O  0.61125027  0.18028042  0.30400365    -0.59800
H823        H  0.59798891  0.16804161  0.28070811     0.44200
H824        H  0.50790713  0.31945337  0.30088128     0.44100
C825        C  0.89168016  0.23096642  0.18861040    -0.04900
C826        C  0.91863078  0.26188899  0.19867262    -0.32400
C827        C  0.95363552  0.26843764  0.17650571     0.36900
C828        C  0.96376875  0.24247602  0.14449926    -0.05300
C829        C  0.93384827  0.21493023  0.13214074    -0.32300
C830        C  0.89940662  0.20826483  0.15408574     0.36800
H831        H  0.91209034  0.28195751  0.22323711     0.17200
O832        O  0.97736035  0.30072996  0.18583929    -0.59800
H833        H  0.93645762  0.19775919  0.10493621     0.17200
O834        O  0.87292603  0.17994303  0.14046489    -0.59800
H835        H  0.88266079  0.15424719  0.15113083     0.44200
H836        H  0.98449663  0.29817509  0.21427722     0.44100
C837        C  0.90209688  0.48306433  0.27857271    -0.04900
C838        C  0.87891480  0.48524151  0.31343826    -0.32400
C839        C  0.89518503  0.48000860  0.35107036     0.36900
C840        C  0.93586638  0.47185687  0.35572608    -0.05300
C841        C  0.95929753  0.46734220  0.32181110    -0.32300
C842        C  0.94306534  0.47268967  0.28348104     0.36800
H843        H  0.84745245  0.49163837  0.31141595     0.17200
O844        O  0.87108638  0.48457032  0.38356274    -0.59800
H845        H  0.99068397  0.46101020  0.32500598     0.17200
O846        O  0.96705058  0.46479471  0.25157907    -0.59800
H847        H  0.98839578  0.48550589  0.25262224     0.44200
H848        H  0.86326282  0.45701293  0.39098917     0.44100
C849        C  0.90693676  0.48836647  0.20150908    -0.04900
C850        C  0.93449060  0.52064351  0.19970744    -0.32400
C851        C  0.95906368  0.52653026  0.16674233     0.36900
C852        C  0.95722378  0.49962290  0.13472757    -0.05300
C853        C  0.92939418  0.46829323  0.13549775    -0.32300
C854        C  0.90389264  0.46287183  0.16761656     0.36800
H855        H  0.93701806  0.54155373  0.22437675     0.17200
O856        O  0.98547438  0.55783862  0.16670081    -0.59800
H857        H  0.92614796  0.44845759  0.10998339     0.17200
O858        O  0.87405212  0.43505670  0.16344243    -0.59800
H859        H  0.88739192  0.40880649  0.15981629     0.44200
H860        H  0.96946081  0.58163494  0.15983627     0.44100
C861        C  0.85109524  0.44924418  0.23962596    -0.04900
C862        C  0.80950091  0.45234574  0.24608428    -0.32400
C863        C  0.78608711  0.41870710  0.25506778     0.36900
C864        C  0.80399323  0.38113964  0.25940460    -0.05300
C865        C  0.84493112  0.37776338  0.25287679    -0.32300
C866        C  0.86820278  0.41069194  0.24317638     0.36800
H867        H  0.79474284  0.48092892  0.24625330     0.17200
O868        O  0.74596634  0.42312078  0.26030162    -0.59800
H869        H  0.85938684  0.34889786  0.25446815     0.17200
O870        O  0.90807539  0.40484331  0.23704860    -0.59800
H871        H  0.91890773  0.39474799  0.26248498     0.44200
H872        H  0.74290326  0.43274283  0.28807630     0.44100
C873        C  0.24343645  0.84939917  0.52951402    -0.04900
C874        C  0.24851359  0.86933084  0.56630737    -0.32400
C875        C  0.24073096  0.85084131  0.60227777     0.36900
C876        C  0.22735117  0.81088239  0.60321598    -0.05300
C877        C  0.22048758  0.79070048  0.56722874    -0.32300
C878        C  0.22807681  0.80937331  0.53058316     0.36800
H879        H  0.25852464  0.90014591  0.56721520     0.17200
O880        O  0.24632908  0.87235111  0.63686917    -0.59800
H881        H  0.21033916  0.75991969  0.56742497     0.17200
O882        O  0.21772930  0.78887323  0.49655308    -0.59800
H883        H  0.23592591  0.76568052  0.49508453     0.44200
H884        H  0.27552702  0.87426554  0.64055083     0.44100
C885        C  0.21322444  0.90583073  0.49644130    -0.04900
C886        C  0.21995399  0.94604360  0.50914936    -0.32400
C887        C  0.18853365  0.97193990  0.51825650     0.36900
C888        C  0.14946767  0.95767042  0.51745428    -0.05300
C889        C  0.14228261  0.91774510  0.50690402    -0.32300
C890        C  0.17330725  0.89191353  0.49686653     0.36800
H891        H  0.24959512  0.95785599  0.51317872     0.17200
O892        O  0.19637613  0.01108159  0.52813909    -0.59800
H893        H  0.11206414  0.90663790  0.50521575     0.17200
O894        O  0.16414578  0.85315785  0.48644113    -0.59800
H895        H  0.15216798  0.84111208  0.51034364     0.44200
H896        H  0.19627621  0.02553189  0.50257209     0.44100
C897        C  0.36607995  0.93336488  0.48176075    -0.04900
C898        C  0.33476137  0.94524655  0.45718517    -0.32400
C899        C  0.29702021  0.92709852  0.46004202     0.36900
C900        C  0.28922190  0.89747351  0.48929069    -0.05300
C901        C  0.32178080  0.88414136  0.51180746    -0.32300
C902        C  0.35944836  0.90114139  0.50802015     0.36800
H903        H  0.33928965  0.96896370  0.43600499     0.17200
O904        O  0.26789931  0.93816804  0.43373037    -0.59800
H905        H  0.31894036  0.85906049  0.53159677     0.17200
O906        O  0.39015009  0.88461260  0.52920236    -0.59800
H907        H  0.38629008  0.89365812  0.55706915     0.44200
H908        H  0.26248955  0.96678830  0.43941842     0.44100
C909        C  0.25940834  0.80475978  0.38146096    -0.04900
C910        C  0.22998551  0.83438900  0.38410186    -0.32400
C911        C  0.22482217  0.85749132  0.41862585     0.36900
C912        C  0.24854011  0.85002789  0.45267468    -0.05300
C913        C  0.27869304  0.82051080  0.44902528    -0.32300
C914        C  0.28438659  0.79845601  0.41398868     0.36800
H915        H  0.21158070  0.84082483  0.35845101     0.17200
O916        O  0.19931925  0.88936708  0.41700034    -0.59800
H917        H  0.29827319  0.81455767  0.47383676     0.17200
O918        O  0.31441744  0.77092273  0.41197718    -0.59800
H919        H  0.30173834  0.74490938  0.41808079     0.44200
H920        H  0.17260731  0.87790709  0.41115651     0.44100
C921        C  0.30594592  0.61431115  0.25833630    -0.04900
C922        C  0.30483670  0.59349181  0.22187887    -0.32400
C923        C  0.32723362  0.55853152  0.21565089     0.36900
C924        C  0.35269787  0.54381233  0.24583735    -0.05300
C925        C  0.34992750  0.56315420  0.28367338    -0.32300
C926        C  0.32805574  0.59823321  0.28957892     0.36800
H927        H  0.28766430  0.60523134  0.19734560     0.17200
O928        O  0.32530181  0.54010332  0.17915128    -0.59800
H929        H  0.36419978  0.55129367  0.30976113     0.17200
O930        O  0.32849132  0.61651768  0.32624526    -0.59800
H931        H  0.30626880  0.60406756  0.34099892     0.44200
H932        H  0.29822860  0.52860016  0.17726418     0.44100
C933        C  0.21722585  0.90407773  0.23929780    -0.04900
C934        C  0.20145382  0.91621549  0.27643264    -0.32400
C935        C  0.17611832  0.94944972  0.28031681     0.36900
C936        C  0.16611757  0.97206676  0.24650389    -0.05300
C937        C  0.18750651  0.96341272  0.21106663    -0.32300
C938        C  0.21096383  0.92904437  0.20674679     0.36800
H939        H  0.20748684  0.89897366  0.30282161     0.17200
O940        O  0.16361449  0.96071107  0.31753447    -0.59800
H941        H  0.18308854  0.98166332  0.18510847     0.17200
O942        O  0.22686955  0.91989978  0.17036169    -0.59800
H943        H  0.20446611  0.90891175  0.15435054     0.44200
H944        H  0.14951717  0.93725787  0.32853449     0.44100
C945        C  0.05105186  0.75575089  0.34460246    -0.04900
C946        C  0.05884744  0.78720083  0.31802818    -0.32400
C947        C  0.09010377  0.78510302  0.29040001     0.36900
C948        C  0.11566408  0.75163523  0.28940056    -0.05300
C949        C  0.11078199  0.72248796  0.31829725    -0.32300
C950        C  0.08069590  0.72515629  0.34683562     0.36800
H951        H  0.03919595  0.81277608  0.31731023     0.17200
O952        O  0.09554592  0.81622515  0.26477265    -0.59800
H953        H  0.13255252  0.69884198  0.32095196     0.17200
O954        O  0.08409672  0.70074569  0.37923002    -0.59800
H955        H  0.08507516  0.67289964  0.36879252     0.44200
H956        H  0.07628601  0.81136581  0.24280439     0.44100
C957        C  0.00934940  0.71835714  0.39612509    -0.04900
C958        C  0.01311711  0.71823276  0.43819762    -0.32400
C959        C  0.01527282  0.68225046  0.45952159     0.36900
C960        C  0.01212964  0.64539393  0.43941400    -0.05300
C961        C  0.00528171  0.64521328  0.39838214    -0.32300
C962        C  0.00384365  0.68062488  0.37686049     0.36800
H963        H  0.01427342  0.74560858  0.45530600     0.17200
O964        O  0.01901519  0.68354782  0.50009281    -0.59800
H965        H  0.00101053  0.61706540  0.38260859     0.17200
O966        O  0.99788142  0.67794746  0.33653847    -0.59800
H967        H  0.02254960  0.66636468  0.32544077     0.44200
H968        H  0.99143409  0.68268105  0.51028630     0.44100
C969        C  0.00932623  0.86530050  0.44832157    -0.04900
C970        C  0.04264522  0.83980044  0.44877244    -0.32400
C971        C  0.04490851  0.80603293  0.42323372     0.36900
C972        C  0.01344374  0.79678704  0.39631563    -0.05300
C973        C  0.98321584  0.82621295  0.39316293    -0.32300
C974        C  0.97960153  0.85789875  0.42003183     0.36800
H975        H  0.06727694  0.84630284  0.46867447     0.17200
O976        O  0.07782407  0.78207736  0.42520011    -0.59800
H977        H  0.96164372  0.82601568  0.36942963     0.17200
O978        O  0.94828099  0.88367953  0.41581176    -0.59800
H979        H  0.92660947  0.87204432  0.43194193     0.44200
H980        H  0.09810084  0.79554105  0.40870427     0.44100
C981        C  0.77885927  0.18801861  0.38938797    -0.04900
C982        C  0.76520958  0.14837667  0.39030396    -0.32400
C983        C  0.75630667  0.12937935  0.42584857     0.36900
C984        C  0.76148521  0.14949211  0.46279366    -0.05300
C985        C  0.77806096  0.18877895  0.46160559    -0.32300
C986        C  0.78581092  0.20818107  0.42544704     0.36800
H987        H  0.75973303  0.13221238  0.36269551     0.17200
O988        O  0.74348624  0.09042605  0.42403511    -0.59800
H989        H  0.78578644  0.20468690  0.48868649     0.17200
O990        O  0.79949094  0.24685668  0.42576277    -0.59800
H991        H  0.77562295  0.26363756  0.42987922     0.44200
H992        H  0.71745029  0.09088406  0.41023389     0.44100
C993        C  0.79740761  0.09950878  0.49977159    -0.04900
C994        C  0.83406580  0.12029262  0.50150285    -0.32400
C995        C  0.87029577  0.10189617  0.49313855     0.36900
C996        C  0.87180890  0.06100029  0.48274357    -0.05300
C997        C  0.83603096  0.03933723  0.48163459    -0.32300
C998        C  0.79906436  0.05816941  0.48857118     0.36800
H999        H  0.83466371  0.15188022  0.50886324     0.17200
O1000       O  0.90435493  0.12444463  0.49605101    -0.59800
H1001       H  0.83652922  0.00772546  0.47425193     0.17200
O1002       O  0.76513623  0.03577685  0.48349662    -0.59800
H1003       H  0.76581570  0.02506815  0.45592747     0.44200
H1004       H  0.91319447  0.12201764  0.52403075     0.44100
C1005       C  0.71918375  0.10101461  0.50738493    -0.04900
C1006       C  0.68465687  0.11055981  0.48543622    -0.32400
C1007       C  0.64799320  0.09191963  0.49254237     0.36900
C1008       C  0.64417571  0.06285725  0.52218665    -0.05300
C1009       C  0.67760866  0.05360464  0.54512256    -0.32300
C1010       C  0.71440554  0.07297353  0.53876105     0.36800
H1011       H  0.68534526  0.13355022  0.46313159     0.17200
O1012       O  0.61584315  0.10201816  0.46967236    -0.59800
H1013       H  0.67515144  0.03164290  0.56840613     0.17200
O1014       O  0.74548922  0.06479175  0.56390368    -0.59800
H1015       H  0.75114873  0.03587050  0.56049960     0.44200
H1016       H  0.60408151  0.12546441  0.48345230     0.44100
C1017       C  0.15258051  0.53691137  0.74219547    -0.04900
C1018       C  0.14968360  0.57025478  0.76808853    -0.32400
C1019       C  0.17060047  0.60574871  0.76088379     0.36900
C1020       C  0.19624854  0.60869287  0.72813829    -0.05300
C1021       C  0.20100766  0.57558365  0.70309048    -0.32300
C1022       C  0.17933822  0.54018955  0.70950795     0.36800
H1023       H  0.12915341  0.57034781  0.79263793     0.17200
O1024       O  0.16541166  0.63788356  0.78601542    -0.59800
H1025       H  0.22067666  0.57748074  0.67780427     0.17200
O1026       O  0.18301406  0.50944867  0.68243411    -0.59800
H1027       H  0.21044979  0.49920791  0.68574971     0.44200
H1028       H  0.14243458  0.65268949  0.77497823     0.44100
C1029       C  0.14701107  0.45996332  0.74689619    -0.04900
C1030       C  0.18784258  0.45869550  0.75817213    -0.32400
C1031       C  0.20714969  0.42261653  0.76756883     0.36900
C1032       C  0.18598619  0.38631021  0.76688805    -0.05300
C1033       C  0.14566346  0.38723891  0.75580943    -0.32300
C1034       C  0.12631786  0.42291898  0.74631235     0.36800
H1035       H  0.20513568  0.48581160  0.76139967     0.17200
O1036       O  0.24697105  0.42325828  0.77632296    -0.59800
H1037       H  0.12844833  0.35980972  0.75443525     0.17200
O1038       O  0.08667270  0.42115813  0.73677208    -0.59800
H1039       H  0.07302506  0.41196980  0.76106614     0.44200
H1040       H  0.24859629  0.42904463  0.80520892     0.44100
C1041       C  0.09705836  0.50601915  0.70687884    -0.04900
C1042       C  0.09925447  0.47989588  0.67379735    -0.32400
C1043       C  0.07649386  0.48627422  0.63936039     0.36900
C1044       C  0.05078819  0.51929903  0.63682396    -0.05300
C1045       C  0.04940750  0.54653978  0.66846100    -0.32300
C1046       C  0.07257935  0.54066674  0.70283957     0.36800
H1047       H  0.11954054  0.45492138  0.67366802     0.17200
O1048       O  0.08079984  0.46092499  0.60730892    -0.59800
H1049       H  0.03076344  0.57278353  0.66636657     0.17200
O1050       O  0.07154610  0.56926669  0.73239654    -0.59800
H1051       H  0.04365031  0.57002888  0.74201959     0.44200
H1052       H  0.07268820  0.43417572  0.61668072     0.44100
C1053       C  0.09789257  0.49905435  0.78381789    -0.04900
C1054       C  0.11857123  0.49767043  0.82045750    -0.32400
C1055       C  0.09960249  0.48868592  0.85626755     0.36900
C1056       C  0.05840498  0.48066213  0.85708691    -0.05300
C1057       C  0.03710275  0.48296326  0.82144125    -0.32300
C1058       C  0.05602641  0.49109037  0.78516274     0.36800
H1059       H  0.15040737  0.50242271  0.82115376     0.17200
O1060       O  0.12193130  0.48817032  0.89046408    -0.59800
H1061       H  0.00543228  0.47706661  0.82136620     0.17200
O1062       O  0.03360846  0.48659905  0.75127108    -0.59800
H1063       H  0.01204176  0.50672870  0.75321592     0.44200
H1064       H  0.12087462  0.51588221  0.90120454     0.44100
C1065       C  0.24849550  0.64862008  0.95203269    -0.04900
C1066       C  0.25080703  0.62694960  0.91570122    -0.32400
C1067       C  0.25884512  0.64589728  0.87968709     0.36900
C1068       C  0.26368503  0.68777632  0.87858274    -0.05300
C1069       C  0.25516932  0.70986938  0.91334451    -0.32300
C1070       C  0.24605001  0.69085365  0.94928860     0.36800
H1071       H  0.24975689  0.59457283  0.91575317     0.17200
O1072       O  0.26122750  0.62305135  0.84568557    -0.59800
H1073       H  0.25479021  0.74224464  0.91259455     0.17200
O1074       O  0.23360034  0.71404624  0.98054434    -0.59800
H1075       H  0.20470650  0.71793316  0.97608049     0.44200
H1076       H  0.28833276  0.61162699  0.84592618     0.44100
C1077       C  0.21413952  0.59661096  0.98980812    -0.04900
C1078       C  0.17715147  0.61631625  0.99324509    -0.32400
C1079       C  0.14218891  0.59587245  0.00248953     0.36900
C1080       C  0.14188659  0.55377391  0.00507172    -0.05300
C1081       C  0.17694696  0.53334300  0.99490255    -0.32300
C1082       C  0.21271840  0.55409654  0.98683339     0.36800
H1083       H  0.17608429  0.64868211  0.99270760     0.17200
O1084       O  0.10846515  0.61781770  0.00923209    -0.59800
H1085       H  0.17661060  0.50100400  0.99260191     0.17200
O1086       O  0.24421445  0.53278516  0.97203231    -0.59800
H1087       H  0.24922616  0.51084275  0.99104133     0.44200
H1088       H  0.09758531  0.62371712  0.98253806     0.44100
C1089       C  0.29321496  0.60124940  0.99022819    -0.04900
C1090       C  0.30090419  0.56995626  0.01704529    -0.32400
C1091       C  0.33482758  0.54544737  0.01334316     0.36900
C1092       C  0.36339456  0.55302542  0.98360951    -0.05300
C1093       C  0.35824042  0.58681049  0.96022224    -0.32300
C1094       C  0.32516813  0.61160767  0.96424999     0.36800
H1095       H  0.27943552  0.56322819  0.03989991     0.17200
O1096       O  0.33984543  0.51460587  0.03939395    -0.59800
H1097       H  0.38117526  0.59559805  0.93956601     0.17200
O1098       O  0.32695024  0.64809542  0.94588845    -0.59800
H1099       H  0.33284909  0.64269877  0.91747470     0.44200
H1100       H  0.35517556  0.52620974  0.06195888     0.44100
C1101       C  0.25172610  0.64947852  0.03127170    -0.04900
C1102       C  0.22456363  0.64017077  0.06199388    -0.32400
C1103       C  0.21811981  0.66536989  0.09462886     0.36900
C1104       C  0.24197089  0.69947737  0.10098044    -0.05300
C1105       C  0.27301464  0.70635702  0.07387136    -0.32300
C1106       C  0.27845981  0.68152226  0.03985948     0.36800
H1107       H  0.20737755  0.61286388  0.06153456     0.17200
O1108       O  0.18792869  0.65603306  0.12023078    -0.59800
H1109       H  0.29394225  0.73045430  0.07953496     0.17200
O1110       O  0.31035031  0.68843180  0.01562978    -0.59800
H1111       H  0.30788946  0.71642588  0.00654852     0.44200
H1112       H  0.19824811  0.63400006  0.13670181     0.44100
C1113       C  0.74595790  0.34774930  0.03889241    -0.04900
C1114       C  0.77728414  0.32270148  0.05145157    -0.32400
C1115       C  0.77349985  0.29740789  0.08447356     0.36900
C1116       C  0.73764692  0.29601529  0.10598304    -0.05300
C1117       C  0.70556857  0.31829199  0.09229342    -0.32300
C1118       C  0.70851809  0.34221099  0.05848164     0.36800
H1119       H  0.80550684  0.32372226  0.03617720     0.17200
O1120       O  0.80601285  0.27637754  0.09710943    -0.59800
H1121       H  0.67739411  0.31666537  0.10764989     0.17200
O1122       O  0.67387933  0.35873866  0.04471682    -0.59800
H1123       H  0.65688575  0.33606851  0.03576660     0.44200
H1124       H  0.80697929  0.25233071  0.07968137     0.44100
C1125       C  0.78800045  0.40564495  0.00387457    -0.04900
C1126       C  0.79578543  0.42854587  0.96930541    -0.32400
C1127       C  0.83030119  0.45164044  0.96539982     0.36900
C1128       C  0.85729177  0.45450917  0.99709914    -0.05300
C1129       C  0.84675583  0.43687397  0.03355289    -0.32300
C1130       C  0.81252010  0.41317277  0.03735247     0.36800
H1131       H  0.77629359  0.42585938  0.94371995     0.17200
O1132       O  0.83805443  0.46964231  0.92986133    -0.59800
H1133       H  0.86593965  0.44011435  0.05931638     0.17200
O1134       O  0.80369533  0.39817826  0.07397759    -0.59800
H1135       H  0.79249317  0.42098960  0.08934072     0.44200
H1136       H  0.82610369  0.49664145  0.93214636     0.44100
C1137       C  0.71687419  0.40468998  0.99752945    -0.04900
C1138       C  0.70931979  0.43096708  0.03015494    -0.32400
C1139       C  0.67554042  0.45520201  0.03171846     0.36900
C1140       C  0.64883411  0.45505086  0.99969810    -0.05300
C1141       C  0.65899217  0.43344504  0.96503159    -0.32300
C1142       C  0.69240955  0.40861591  0.96350105     0.36800
H1143       H  0.72850454  0.43056760  0.05601740     0.17200
O1144       O  0.66824593  0.47748281  0.06531396    -0.59800
H1145       H  0.64002375  0.43435924  0.93896992     0.17200
O1146       O  0.70150027  0.39030788  0.92806115    -0.59800
H1147       H  0.67805483  0.37360305  0.92077526     0.44200
H1148       H  0.68385508  0.50243901  0.06205863     0.44100
C1149       C  0.34829964  0.96511912  0.75818572    -0.04900
C1150       C  0.30660740  0.96279934  0.76479330    -0.32400
C1151       C  0.28736802  0.92618080  0.77181197     0.36900
C1152       C  0.30938310  0.89075628  0.77332189    -0.05300
C1153       C  0.35057799  0.89266139  0.76852531    -0.32300
C1154       C  0.37006070  0.92891461  0.76190884     0.36800
H1155       H  0.28829508  0.98924446  0.76526038     0.17200
O1156       O  0.24685773  0.92522661  0.77583651    -0.59800
H1157       H  0.36786499  0.86535587  0.76858999     0.17200
O1158       O  0.41060920  0.92843900  0.75781378    -0.59800
H1159       H  0.42131185  0.92070916  0.78412579     0.44200
H1160       H  0.23628807  0.92176579  0.74846001     0.44100
C1161       C  0.29132115  0.10869056  0.73756547    -0.04900
C1162       C  0.29401136  0.07878246  0.70856980    -0.32400
C1163       C  0.31706805  0.04457028  0.71545354     0.36900
C1164       C  0.34052486  0.04110437  0.75081999    -0.05300
C1165       C  0.33688896  0.07167982  0.77968756    -0.32300
C1166       C  0.31158380  0.10409568  0.77377735     0.36800
H1167       H  0.27845929  0.08196745  0.68054336     0.17200
O1168       O  0.31810129  0.01545294  0.68645795    -0.59800
H1169       H  0.35425865  0.07173667  0.80668748     0.17200
O1170       O  0.30844727  0.13264268  0.80306751    -0.59800
H1171       H  0.28493471  0.12454960  0.81872900     0.44200
H1172       H  0.29234801  0.00102242  0.68840466     0.44100
C1173       C  0.39564785  0.00709969  0.79487054    -0.04900
C1174       C  0.37434487  0.00185088  0.83068096    -0.32400
C1175       C  0.39295273  0.99136299  0.86631399     0.36900
C1176       C  0.43449559  0.98688273  0.86809708    -0.05300
C1177       C  0.45640274  0.99383694  0.83356670    -0.32300
C1178       C  0.43790450  0.00340172  0.79741472     0.36800
H1179       H  0.34222271  0.00358357  0.83050814     0.17200
O1180       O  0.36986941  0.98530443  0.89920223    -0.59800
H1181       H  0.48845988  0.99107666  0.83425745     0.17200
O1182       O  0.46175434  0.00500814  0.76463900    -0.59800
H1183       H  0.47760061  0.02987714  0.76785260     0.44200
H1184       H  0.36418524  0.01232704  0.90992731     0.44100
C1185       C  0.39748034  0.01015997  0.71731109    -0.04900
C1186       C  0.39858861  0.97956395  0.68859259    -0.32400
C1187       C  0.42159011  0.98230982  0.65460337     0.36900
C1188       C  0.44297710  0.01795867  0.64555151    -0.05300
C1189       C  0.44100475  0.04972461  0.67306552    -0.32300
C1190       C  0.41851286  0.04621395  0.70837358     0.36800
H1191       H  0.38088105  0.95281977  0.69125916     0.17200
O1192       O  0.42161541  0.94942525  0.62980179    -0.59800
H1193       H  0.45662644  0.07738872  0.66721749     0.17200
O1194       O  0.41800962  0.07791007  0.73458986    -0.59800
H1195       H  0.40030702  0.09804562  0.72230428     0.44200
H1196       H  0.44180294  0.93113903  0.64108660     0.44100
C1197       C  0.46870697  0.75132524  0.14659092    -0.04900
C1198       C  0.46561311  0.78451065  0.17317851    -0.32400
C1199       C  0.43117847  0.79184256  0.19552965     0.36900
C1200       C  0.39790112  0.76712102  0.19046324    -0.05300
C1201       C  0.39994754  0.73470755  0.16401116    -0.32300
C1202       C  0.43435428  0.72646499  0.14221991     0.36800
H1203       H  0.49031639  0.80516176  0.17639260     0.17200
O1204       O  0.42993866  0.82402564  0.22104707    -0.59800
H1205       H  0.37394475  0.71597340  0.15928294     0.17200
O1206       O  0.43183997  0.69685148  0.11378544    -0.59800
H1207       H  0.42786579  0.67154663  0.12841315     0.44200
H1208       H  0.43644985  0.81307368  0.24754545     0.44100
C1209       C  0.52188287  0.63709345  0.05035761    -0.04900
C1210       C  0.51781412  0.63654772  0.09173086    -0.32400
C1211       C  0.51123314  0.67154927  0.11359992     0.36900
C1212       C  0.50841659  0.70908336  0.09442049    -0.05300
C1213       C  0.51296543  0.70924454  0.05251535    -0.32300
C1214       C  0.51871999  0.67374645  0.03065976     0.36800
H1215       H  0.51867339  0.60845335  0.10747658     0.17200
O1216       O  0.50635497  0.66866437  0.15394224    -0.59800
H1217       H  0.51353035  0.73680686  0.03614496     0.17200
O1218       O  0.52282611  0.67548592  0.99020956    -0.59800
H1219       H  0.49535134  0.67589983  0.97955492     0.44200
H1220       H  0.53227541  0.65947728  0.16454066     0.44100
C1221       C  0.50415733  0.78650315  0.09361088    -0.04900
C1222       C  0.53288625  0.81715961  0.09613175    -0.32400
C1223       C  0.52938609  0.85236137  0.07432613     0.36900
C1224       C  0.49542163  0.85943843  0.05038010    -0.05300
C1225       C  0.46609191  0.82984045  0.04822667    -0.32300
C1226       C  0.47040228  0.79362589  0.06874323     0.36800
H1227       H  0.55808155  0.81503367  0.11592279     0.17200
O1228       O  0.55915266  0.88036597  0.07793247    -0.59800
H1229       H  0.43967556  0.83463066  0.03042595     0.17200
O1230       O  0.44053281  0.76578863  0.06533935    -0.59800
H1231       H  0.44152664  0.75573523  0.03758001     0.44200
H1232       H  0.55249389  0.89641220  0.10190456     0.44100
C1233       C  0.70223352  0.90995051  0.01408454    -0.04900
C1234       C  0.70510240  0.95183340  0.00774867    -0.32400
C1235       C  0.67124084  0.97520493  0.00087531     0.36900
C1236       C  0.63373595  0.95707890  0.99917663    -0.05300
C1237       C  0.63019693  0.91620661  0.00651344    -0.32300
C1238       C  0.66354936  0.89282025  0.01436989     0.36800
H1239       H  0.73349585  0.96668629  0.00558311     0.17200
O1240       O  0.67517732  0.01562628  0.99554023    -0.59800
H1241       H  0.60111740  0.90220495  0.00648603     0.17200
O1242       O  0.65833549  0.85250219  0.01988446    -0.59800
H1243       H  0.64252320  0.84986445  0.04448791     0.44200
H1244       H  0.67802824  0.01900278  0.96646673     0.44100
C1245       C  0.77934573  0.90546549  0.01208864    -0.04900
C1246       C  0.80758804  0.89787499  0.98237570    -0.32400
C1247       C  0.84508146  0.91554462  0.98308940     0.36900
C1248       C  0.85735946  0.94052728  0.01536228    -0.05300
C1249       C  0.82981728  0.94838204  0.04543296    -0.32300
C1250       C  0.79133083  0.93144367  0.04403129     0.36800
H1251       H  0.80180913  0.87692898  0.95842151     0.17200
O1252       O  0.86987344  0.90680948  0.95194929    -0.59800
H1253       H  0.83817424  0.96729466  0.07044757     0.17200
O1254       O  0.76607362  0.93931322  0.07495908    -0.59800
H1255       H  0.76031007  0.96835464  0.07380181     0.44200
H1256       H  0.86429086  0.92749285  0.93182945     0.44100
C1257       C  0.74391613  0.85470672  0.04993498    -0.04900
C1258       C  0.77378920  0.82474943  0.04892137    -0.32400
C1259       C  0.78267020  0.80108612  0.08196404     0.36900
C1260       C  0.76373723  0.80857096  0.11816287    -0.05300
C1261       C  0.73531512  0.83903745  0.12034245    -0.32300
C1262       C  0.72491034  0.86172040  0.08705873     0.36800
H1263       H  0.79046330  0.81961414  0.02192261     0.17200
O1264       O  0.81043992  0.77135293  0.07867263    -0.59800
H1265       H  0.72084309  0.84541649  0.14840386     0.17200
O1266       O  0.69912477  0.89298168  0.09264746    -0.59800
H1267       H  0.67382602  0.88098601  0.10168118     0.44200
H1268       H  0.83538502  0.78313106  0.08947204     0.44100
C1269       C  0.69038668  0.87968391  0.26666979    -0.04900
C1270       C  0.66005099  0.88055434  0.23796633    -0.32400
C1271       C  0.63861650  0.91566966  0.23018034     0.36900
C1272       C  0.64689233  0.95142955  0.25210682    -0.05300
C1273       C  0.67649182  0.94912063  0.28227024    -0.32300
C1274       C  0.69890931  0.91445805  0.28850121     0.36800
H1275       H  0.65290074  0.85359701  0.22118202     0.17200
O1276       O  0.60762375  0.91321081  0.20363337    -0.59800
H1277       H  0.68261412  0.97492426  0.30106813     0.17200
O1278       O  0.72787321  0.91442011  0.31725699    -0.59800
H1279       H  0.75249105  0.92274478  0.30352315     0.44200
H1280       H  0.61966435  0.90672451  0.17755738     0.44100
C1281       C  0.89739535  0.76921822  0.30720016    -0.04900
C1282       C  0.93188569  0.76490219  0.28455857    -0.32400
C1283       C  0.96918810  0.75819647  0.30274434     0.36900
C1284       C  0.97262364  0.75696975  0.34507070    -0.05300
C1285       C  0.93658096  0.75674247  0.36661625    -0.32300
C1286       C  0.90005920  0.76425478  0.34850073     0.36800
H1287       H  0.92958541  0.76424478  0.25244411     0.17200
O1288       O  0.00033830  0.74806363  0.27861006    -0.59800
H1289       H  0.93715824  0.75374433  0.39863200     0.17200
O1290       O  0.86654740  0.76553222  0.37151989    -0.59800
H1291       H  0.86503044  0.79351639  0.38150480     0.44200
H1292       H  0.00344899  0.77043922  0.25972625     0.44100
C1293       C  0.81572798  0.60223029  0.22981470    -0.04900
C1294       C  0.80887718  0.57227542  0.20103522    -0.32400
C1295       C  0.82883766  0.53510351  0.20310915     0.36900
C1296       C  0.85539167  0.52673204  0.23517778    -0.05300
C1297       C  0.86411389  0.55843346  0.26151366    -0.32300
C1298       C  0.84489544  0.59497104  0.25941713     0.36800
H1299       H  0.78804024  0.57749268  0.17705281     0.17200
O1300       O  0.82311087  0.50749150  0.17313188    -0.59800
H1301       H  0.88730113  0.55614997  0.28364353     0.17200
O1302       O  0.85669937  0.62426524  0.28590195    -0.59800
H1303       H  0.84384065  0.61738994  0.31135264     0.44200
H1304       H  0.79481595  0.49923192  0.17472287     0.44100
C1305       C  0.61742028  0.72664465  0.18893590    -0.04900
C1306       C  0.61804545  0.73180751  0.14762673    -0.32400
C1307       C  0.58362534  0.74157599  0.12611994     0.36900
C1308       C  0.54621688  0.74575787  0.14536226    -0.05300
C1309       C  0.54611475  0.74047406  0.18717717    -0.32300
C1310       C  0.58087244  0.73149407  0.20862115     0.36800
H1311       H  0.64576090  0.72913408  0.13161148     0.17200
O1312       O  0.58651382  0.74496453  0.08562715    -0.59800
H1313       H  0.51887785  0.74086397  0.20387424     0.17200
O1314       O  0.57840712  0.72699424  0.24897636    -0.59800
H1315       H  0.57618342  0.69774388  0.25309900     0.44200
H1316       H  0.60356149  0.76876348  0.08099494     0.44100
C1317       C  0.69731717  0.59894050  0.51156137    -0.04900
C1318       C  0.69902910  0.55668927  0.50865535    -0.32400
C1319       C  0.66548895  0.53389973  0.49769903     0.36900
C1320       C  0.62862383  0.55269743  0.49159447    -0.05300
C1321       C  0.62558850  0.59368160  0.50045116    -0.32300
C1322       C  0.65892726  0.61649126  0.51116007     0.36800
H1323       H  0.72632034  0.54070310  0.51358450     0.17200
O1324       O  0.66928071  0.49331889  0.49283704    -0.59800
H1325       H  0.59702402  0.60847191  0.49913456     0.17200
O1326       O  0.65410152  0.65667405  0.51840567    -0.59800
H1327       H  0.64649428  0.66857010  0.49262274     0.44200
H1328       H  0.67798754  0.48942251  0.46494851     0.44100
C1329       C  0.77503443  0.60229975  0.51232737    -0.04900
C1330       C  0.80373129  0.60881176  0.54308031    -0.32400
C1331       C  0.83676936  0.58430231  0.54801235     0.36900
C1332       C  0.84505720  0.55478747  0.51979152    -0.05300
C1333       C  0.81956456  0.55031623  0.48676996    -0.32300
C1334       C  0.78541961  0.57394802  0.48254141     0.36800
H1335       H  0.80225232  0.63389272  0.56335634     0.17200
O1336       O  0.86308702  0.59236284  0.57832946    -0.59800
H1337       H  0.82705848  0.52934674  0.46321797     0.17200
O1338       O  0.76223806  0.56878025  0.44925280    -0.59800
H1339       H  0.77596476  0.58380543  0.42806311     0.44200
H1340       H  0.85190301  0.57878922  0.60183981     0.44100
C1341       C  0.73467802  0.65019051  0.47019113    -0.04900
C1342       C  0.70545672  0.64274371  0.44014330    -0.32400
C1343       C  0.70296709  0.66513562  0.40543737     0.36900
C1344       C  0.73156866  0.69418606  0.39746992    -0.05300
C1345       C  0.76310727  0.69957820  0.42471369    -0.32300
C1346       C  0.76518514  0.67765753  0.46021907     0.36800
H1347       H  0.68460736  0.61833447  0.44180222     0.17200
O1348       O  0.67471237  0.65530966  0.37745431    -0.59800
H1349       H  0.78703738  0.72007747  0.41780522     0.17200
O1350       O  0.79700828  0.68371007  0.48518600    -0.59800
H1351       H  0.81896914  0.66786213  0.47342817     0.44200
H1352       H  0.65059042  0.67010170  0.38562071     0.44100
C1353       C  0.55019026  0.50479255  0.85475338    -0.04900
C1354       C  0.58331746  0.52980896  0.85232021    -0.32400
C1355       C  0.60975972  0.52696141  0.82038856     0.36900
C1356       C  0.60097722  0.50138783  0.78709345    -0.05300
C1357       C  0.57095621  0.47245193  0.79284657    -0.32300
C1358       C  0.54526951  0.47453816  0.82563476     0.36800
H1359       H  0.59049397  0.54981976  0.87689687     0.17200
O1360       O  0.64604661  0.54559542  0.82450642    -0.59800
H1361       H  0.56553330  0.44970150  0.77033550     0.17200
O1362       O  0.51461812  0.44758969  0.82825831    -0.59800
H1363       H  0.52673475  0.42290868  0.83885448     0.44200
H1364       H  0.64060234  0.57397974  0.83138389     0.44100
C1365       C  0.59641637  0.50564034  0.70869841    -0.04900
C1366       C  0.61562371  0.50524057  0.67143326    -0.32400
C1367       C  0.59469344  0.49838855  0.63593476     0.36900
C1368       C  0.55320626  0.49190188  0.63644732    -0.05300
C1369       C  0.53319942  0.49791909  0.67239554    -0.32300
C1370       C  0.55401052  0.50642657  0.70788152     0.36800
H1371       H  0.64769174  0.50765537  0.67007333     0.17200
O1372       O  0.61514315  0.49915439  0.60077581    -0.59800
H1373       H  0.50104698  0.49673951  0.67301328     0.17200
O1374       O  0.53217296  0.51679807  0.74060204    -0.59800
H1375       H  0.52134561  0.54370578  0.73507366     0.44200
H1376       H  0.62778738  0.47252494  0.59833802     0.44100
C1377       C  0.69600523  0.39114068  0.73930796    -0.04900
C1378       C  0.66196237  0.39568390  0.71584569    -0.32400
C1379       C  0.63756754  0.42944174  0.71896062     0.36900
C1380       C  0.64834013  0.46261916  0.74410115    -0.05300
C1381       C  0.68064413  0.45606858  0.77031027    -0.32300
C1382       C  0.70459757  0.42152651  0.76767400     0.36800
H1383       H  0.65255731  0.37168513  0.69602462     0.17200
O1384       O  0.60093662  0.42692916  0.70094493    -0.59800
H1385       H  0.68776005  0.47823582  0.79294120     0.17200
O1386       O  0.73564398  0.41750356  0.79382863    -0.59800
H1387       H  0.72389702  0.40535088  0.81783299     0.44200
H1388       H  0.60592736  0.42202880  0.67225896     0.44100
C1389       C  0.77236837  0.29584427  0.89789578    -0.04900
C1390       C  0.73688527  0.29332637  0.91952125    -0.32400
C1391       C  0.73070720  0.31712597  0.95360289     0.36900
C1392       C  0.75984175  0.34531481  0.96631051    -0.05300
C1393       C  0.79765803  0.34222221  0.94769225    -0.32300
C1394       C  0.80344508  0.31923926  0.91329440     0.36800
H1395       H  0.71272549  0.27463916  0.90864893     0.17200
O1396       O  0.69485788  0.31457991  0.97244862    -0.59800
H1397       H  0.82344515  0.35795357  0.95904724     0.17200
O1398       O  0.83947952  0.32059971  0.89450157    -0.59800
H1399       H  0.85425632  0.29701806  0.90428098     0.44200
H1400       H  0.69564982  0.28894734  0.98701588     0.44100
C1401       C  0.61155248  0.23149989  0.80389148    -0.04900
C1402       C  0.61043864  0.23288269  0.84553662    -0.32400
C1403       C  0.57497799  0.23911806  0.86611495     0.36900
C1404       C  0.53836973  0.24357182  0.84536153    -0.05300
C1405       C  0.53967436  0.24060936  0.80327680    -0.32300
C1406       C  0.57565267  0.23556688  0.78278131     0.36800
H1407       H  0.63762839  0.23039412  0.86267816     0.17200
O1408       O  0.57631109  0.24038541  0.90691385    -0.59800
H1409       H  0.51292609  0.24140957  0.78553246     0.17200
O1410       O  0.57518602  0.23444697  0.74205847    -0.59800
H1411       H  0.57166871  0.20583193  0.73483498     0.44200
H1412       H  0.59274987  0.26391838  0.91425433     0.44100
C1413       C  0.89262112  0.26332473  0.70442130    -0.04900
C1414       C  0.92312283  0.29124883  0.70945065    -0.32400
C1415       C  0.95747692  0.28931036  0.68581134     0.36900
C1416       C  0.96194128  0.25897584  0.65584781    -0.05300
C1417       C  0.92992946  0.23241509  0.65014851    -0.32300
C1418       C  0.89644594  0.23376796  0.67443351     0.36800
H1419       H  0.92077167  0.31420390  0.73227030     0.17200
O1420       O  0.98731673  0.31628842  0.69353122    -0.59800
H1421       H  0.92997672  0.21058177  0.62624872     0.17200
O1422       O  0.86674479  0.20642445  0.66764710    -0.59800
H1423       H  0.85295181  0.21592996  0.64347687     0.44200
H1424       H  0.97611022  0.34297103  0.68713003     0.44100
C1425       C  0.75033710  0.19963990  0.61150843    -0.04900
C1426       C  0.72657252  0.20830163  0.57856251    -0.32400
C1427       C  0.72992107  0.18587771  0.54300072     0.36900
C1428       C  0.75799239  0.15409367  0.53947446    -0.05300
C1429       C  0.78095515  0.14545239  0.57333060    -0.32300
C1430       C  0.77731073  0.16744632  0.60874152     0.36800
H1431       H  0.70525234  0.23243839  0.58033865     0.17200
O1432       O  0.70472273  0.19455226  0.51214141    -0.59800
H1433       H  0.80064469  0.11998928  0.57356271     0.17200
O1434       O  0.79740982  0.15480024  0.64198701    -0.59800
H1435       H  0.82515444  0.14941725  0.63376792     0.44200
H1436       H  0.71230094  0.22177542  0.50328093     0.44100
C1437       C  0.90717597  0.00344576  0.70675373    -0.04900
C1438       C  0.92910143  0.96814113  0.69811471    -0.32400
C1439       C  0.95014111  0.96321998  0.66260678     0.36900
C1440       C  0.95276285  0.99489323  0.63602302    -0.05300
C1441       C  0.93552945  0.03175320  0.64635704    -0.32300
C1442       C  0.91290133  0.03645452  0.68124253     0.36800
H1443       H  0.92751067  0.94291087  0.71795310     0.17200
O1444       O  0.96834596  0.92747193  0.65439874    -0.59800
H1445       H  0.93930830  0.05710567  0.62691789     0.17200
O1446       O  0.89945261  0.07390732  0.69145310    -0.59800
H1447       H  0.88547778  0.08446932  0.66779253     0.44200
H1448       H  0.94740032  0.91040457  0.64208596     0.44100
C1449       C  0.90918077  0.99999458  0.77937292    -0.04900
C1450       C  0.91430138  0.96461969  0.80096635    -0.32400
C1451       C  0.93610795  0.96436919  0.83646538     0.36900
C1452       C  0.95403374  0.00001830  0.85146857    -0.05300
C1453       C  0.95400957  0.03368938  0.82715842    -0.32300
C1454       C  0.93330305  0.03334312  0.79077663     0.36800
H1455       H  0.90080257  0.93685833  0.79102131     0.17200
O1456       O  0.93977739  0.92877119  0.85610414    -0.59800
H1457       H  0.96902422  0.06082349  0.83681382     0.17200
O1458       O  0.93389089  0.06726170  0.76832905    -0.59800
H1459       H  0.95912633  0.06591995  0.75332647     0.44200
H1460       H  0.91374838  0.92424696  0.86897318     0.44100
C1461       C  0.79523815  0.10257035  0.76212781    -0.04900
C1462       C  0.79641011  0.08141254  0.72582685    -0.32400
C1463       C  0.82308311  0.04976499  0.71954883     0.36900
C1464       C  0.85063223  0.03904732  0.74959998    -0.05300
C1465       C  0.84585432  0.05801774  0.78736396    -0.32300
C1466       C  0.81869424  0.08903677  0.79365040     0.36800
H1467       H  0.77753457  0.09055637  0.70141142     0.17200
O1468       O  0.82171556  0.02903350  0.68408910    -0.59800
H1469       H  0.86234981  0.04854828  0.81314180     0.17200
O1470       O  0.81722190  0.10744823  0.83020927    -0.59800
H1471       H  0.79806898  0.09138449  0.84574938     0.44200
H1472       H  0.82450148  0.04907523  0.66279959     0.44100
C1473       C  0.69263275  0.61383600  0.76351952    -0.04900
C1474       C  0.65125188  0.61445385  0.75849927    -0.32400
C1475       C  0.62977412  0.57975977  0.74897317     0.36900
C1476       C  0.64919317  0.54216934  0.74540941    -0.05300
C1477       C  0.69123560  0.54301755  0.74419982    -0.32300
C1478       C  0.71277906  0.57810515  0.75378827     0.36800
H1479       H  0.63494964  0.64211190  0.76226558     0.17200
O1480       O  0.58928130  0.58261437  0.74533441    -0.59800
H1481       H  0.70802987  0.51667213  0.73653486     0.17200
O1482       O  0.75347584  0.57672658  0.75435989    -0.59800
H1483       H  0.76161366  0.58092244  0.72643742     0.44200
H1484       H  0.57924124  0.58862876  0.77237585     0.44100
C1485       C  0.75287271  0.69413288  0.62118261    -0.04900
C1486       C  0.74605769  0.71542959  0.58603842    -0.32400
C1487       C  0.73506296  0.69574142  0.55048597     0.36900
C1488       C  0.73256795  0.65332257  0.54896765    -0.05300
C1489       C  0.73224893  0.63343158  0.58591359    -0.32300
C1490       C  0.74390476  0.65290729  0.62113440     0.36800
H1491       H  0.74896978  0.74770742  0.58609999     0.17200
O1492       O  0.72588755  0.71869700  0.51832441    -0.59800
H1493       H  0.72770200  0.60135169  0.58672371     0.17200
O1494       O  0.74589174  0.63123660  0.65545302    -0.59800
H1495       H  0.77212414  0.61788786  0.65472715     0.44200
H1496       H  0.69754590  0.72590768  0.52164526     0.44100
C1497       C  0.61216425  0.76452401  0.69648257    -0.04900
C1498       C  0.61678059  0.75728487  0.65562611    -0.32400
C1499       C  0.58466524  0.74622781  0.63142347     0.36900
C1500       C  0.54576998  0.74373844  0.64727477    -0.05300
C1501       C  0.54164427  0.75075243  0.68876495    -0.32300
C1502       C  0.57437936  0.75993033  0.71319827     0.36800
H1503       H  0.64589338  0.75927625  0.64216728     0.17200
O1504       O  0.59117024  0.74037568  0.59153521    -0.59800
H1505       H  0.51286549  0.75176571  0.70266399     0.17200
O1506       O  0.56864332  0.76652801  0.75302822    -0.59800
H1507       H  0.56771210  0.73953176  0.76491849     0.44200
H1508       H  0.60944479  0.71735084  0.58934400     0.44100
C1509       C  0.79813976  0.89899620  0.73488159    -0.04900
C1510       C  0.80035127  0.92228129  0.76974076    -0.32400
C1511       C  0.82573948  0.95531465  0.77282321     0.36900
C1512       C  0.85007073  0.96624403  0.74036810    -0.05300
C1513       C  0.84332435  0.94540079  0.70377940    -0.32300
C1514       C  0.81864351  0.91165129  0.70124958     0.36800
H1515       H  0.78366996  0.91356714  0.79574014     0.17200
O1516       O  0.82668368  0.97659514  0.80791997    -0.59800
H1517       H  0.85716376  0.95471915  0.67651844     0.17200
O1518       O  0.81620462  0.89040396  0.66623755    -0.59800
H1519       H  0.83835828  0.87097434  0.66726505     0.44200
H1520       H  0.83629785  0.95778918  0.82845706     0.44100
C1521       C  0.73129074  0.85681546  0.97335204    -0.04900
C1522       C  0.72307453  0.81500086  0.97292469    -0.32400
C1523       C  0.71624089  0.79353459  0.93722681     0.36900
C1524       C  0.71583316  0.81353717  0.90083427    -0.05300
C1525       C  0.72079554  0.85516470  0.90110958    -0.32300
C1526       C  0.72801900  0.87667586  0.93629440     0.36800
H1527       H  0.72164189  0.79825505  0.00009193     0.17200
O1528       O  0.71280281  0.75269850  0.93811339    -0.59800
H1529       H  0.72113905  0.87113506  0.87324989     0.17200
O1530       O  0.73423714  0.91715421  0.93373419    -0.59800
H1531       H  0.70817521  0.92863378  0.92613400     0.44200
H1532       H  0.68390370  0.74736924  0.93974715     0.44100
C1533       C  0.89084240  0.73906363  0.81537252    -0.04900
C1534       C  0.91868805  0.70945486  0.80627601    -0.32400
C1535       C  0.95677860  0.71003638  0.82378029     0.36900
C1536       C  0.96876833  0.74164758  0.85014969    -0.05300
C1537       C  0.94004337  0.77056451  0.85967310    -0.32300
C1538       C  0.90213414  0.76970844  0.84280862     0.36800
H1539       H  0.91096474  0.68551668  0.78569059     0.17200
O1540       O  0.98269225  0.68007346  0.81384845    -0.59800
H1541       H  0.94587111  0.79370428  0.88156930     0.17200
O1542       O  0.87629447  0.79938954  0.85398749    -0.59800
H1543       H  0.86314889  0.78940443  0.87824860     0.44200
H1544       H  0.97129521  0.65535456  0.82530356     0.44100
loop_ 
_geom_bond_atom_site_label_1 
_geom_bond_atom_site_label_2 
_geom_bond_distance 
_geom_bond_site_symmetry_2 
_ccdc_geom_bond_type 
Zn1           O5   1.968       .  S
Zn1           O6   2.004       .  S
Zn1          O10   2.068       .  S
Zn1          O17   1.986       .  S
Zn2           O5   1.981       .  S
Zn2           O7   2.117       .  S
Zn2           O9   2.041       .  S
Zn2          O13   2.029       .  S
Zn3           O5   1.886       .  S
Zn3           O8   1.926       .  S
Zn3          O11   1.922       .  S
Zn3          O14   1.932       .  S
Zn4           O5   1.970       .  S
Zn4          O12   2.121       .  S
Zn4          O15   2.022       .  S
Zn4          O16   2.031       .  S
O6           C18   1.272       .  A
O7           C19   1.285       .  A
O8           C20   1.261       .  A
O9           C18   1.278       .  A
O10          C20   1.277       .  A
O11          C19   1.261       .  A
O12          C21   1.283       .  A
O13          C22   1.276       .  A
O14          C21   1.261       .  A
O15          C22   1.278       .  A
O16          C23   1.276       .  A
O17          C23   1.273       .  A
C18        C1485   1.491       .  S
C19        C1533   1.497       .  S
C20        C1509   1.474       .  S
C21        C1524   1.483       .  S
C22        C1473   1.494       .  S
C23        C1497   1.481       .  S
C24        C1437   1.564       .  S
C24        C1449   1.563   1_545  S
C24        C1464   1.567       .  S
C24        C1512   1.568   1_545  S
Zn25         O29   1.952       .  S
Zn25         O30   2.040       .  S
Zn25         O34   2.051       .  S
Zn25         O41   2.105       .  S
Zn26         O29   1.934       .  S
Zn26         O31   2.007       .  S
Zn26         O33   2.013       .  S
Zn26         O37   2.089       .  S
Zn27         O29   1.944       .  S
Zn27         O32   2.042       .  S
Zn27         O35   2.053       .  S
Zn27         O38   2.113       .  S
Zn28         O29   1.870       .  S
Zn28         O36   1.957       .  S
Zn28         O39   1.951       .  S
Zn28         O40   1.956       .  S
O30          C42   1.280       .  A
O31          C43   1.276       .  A
O32          C44   1.282       .  A
O33          C42   1.275       .  A
O34          C44   1.279       .  A
O35          C43   1.279       .  A
O36          C45   1.265       .  A
O37          C46   1.281       .  A
O38          C45   1.284       .  A
O39          C46   1.264       .  A
O40          C47   1.263       .  A
O41          C47   1.282       .  A
C42        C1389   1.481       .  S
C43        C1401   1.490       .  S
C44        C1377   1.503       .  S
C45        C1425   1.489       .  S
C46        C1461   1.483       .  S
C47        C1413   1.485       .  S
C48        C1356   1.570       .  S
C48        C1365   1.571       .  S
C48        C1380   1.582       .  S
C48        C1476   1.569       .  S
C49        C1317   1.566       .  S
C49        C1329   1.577       .  S
C49        C1341   1.579       .  S
C49        C1488   1.568       .  S
Zn50         O54   1.893       .  S
Zn50         O55   1.928       .  S
Zn50         O59   1.914       .  S
Zn50         O66   1.941       .  S
Zn51         O54   1.973       .  S
Zn51         O56   2.014       .  S
Zn51         O58   2.108       .  S
Zn51         O62   2.043       .  S
Zn52         O54   1.993       .  S
Zn52         O57   2.130       .  S
Zn52         O60   2.046       .  S
Zn52         O63   2.043       .  S
Zn53         O54   1.967       .  S
Zn53         O61   2.031       .  S
Zn53         O64   2.017       .  S
Zn53         O65   2.106       .  S
O55          C67   1.260       .  A
O56          C68   1.274       .  A
O57          C69   1.284       .  A
O58          C67   1.282       .  A
O59          C69   1.260       .  A
O60          C68   1.277       .  A
O61          C70   1.277       .  A
O62          C71   1.277       .  A
O63          C70   1.279       .  A
O64          C71   1.274       .  A
O65          C72   1.284       .  A
O66          C72   1.260       .  A
C67        C1281   1.477       .  S
C68        C1260   1.479       .  S
C69        C1293   1.498       .  S
C70        C1305   1.498       .  S
C71        C1269   1.480       .  S
C72        C1344   1.481       .  S
C73        C1233   1.558       .  S
C73        C1245   1.568       .  S
C73        C1257   1.564       .  S
C73        C1521   1.580   1_554  S
C74        C1197   1.569       .  S
C74        C1212   1.560       .  S
C74        C1221   1.568       .  S
C74        C1308   1.580       .  S
C75        C1149   1.573   1_545  S
C75        C1164   1.561       .  S
C75        C1173   1.572       .  S
C75        C1185   1.568       .  S
C76        C1113   1.577       .  S
C76        C1125   1.566       .  S
C76        C1137   1.557   1_554  S
C76        C1392   1.574   1_554  S
C77        C1065   1.565       .  S
C77        C1077   1.578       .  S
C77        C1089   1.577       .  S
C77        C1101   1.587   1_556  S
C78        C1017   1.566       .  S
C78        C1029   1.573       .  S
C78        C1041   1.565       .  S
C78        C1053   1.575       .  S
C79         C984   1.566       .  S
C79         C993   1.574       .  S
C79        C1005   1.570       .  S
C79        C1428   1.564       .  S
C80         C945   1.574       .  S
C80         C957   1.567       .  S
C80         C972   1.582       .  S
C80        C1284   1.579   1_455  S
Zn81         O85   1.936       .  S
Zn81         O86   2.033       .  S
Zn81         O90   2.137       .  S
Zn81         O97   2.073       .  S
Zn82         O85   1.939       .  S
Zn82         O87   2.083       .  S
Zn82         O89   2.034       .  S
Zn82         O93   2.042       .  S
Zn83         O85   1.868       .  S
Zn83         O88   1.943       .  S
Zn83         O91   1.943       .  S
Zn83         O94   1.973       .  S
Zn84         O85   1.914       .  S
Zn84         O92   2.096       .  S
Zn84         O95   2.025       .  S
Zn84         O96   2.009       .  S
O86          C98   1.278       .  A
O87          C99   1.282       .  A
O88         C100   1.263       .  A
O89          C98   1.277       .  A
O90         C100   1.289       .  A
O91          C99   1.264       .  A
O92         C101   1.284       .  A
O93         C102   1.278       .  A
O94         C101   1.264       .  A
O95         C102   1.276       .  A
O96         C103   1.278       .  A
O97         C103   1.282       .  A
C98        C1200   1.475       .  S
C99         C909   1.475       .  S
C100        C933   1.499       .  S
C101        C948   1.491       .  S
C102        C921   1.485       .  S
C103       C1104   1.501       .  S
C104        C873   1.568       .  S
C104        C885   1.562       .  S
C104        C900   1.565       .  S
C104        C912   1.553       .  S
C105        C837   1.573       .  S
C105        C849   1.554       .  S
C105        C861   1.561       .  S
C105       C1296   1.566       .  S
Zn106       O110   1.880       .  S
Zn106       O111   1.910       .  S
Zn106       O115   1.902       .  S
Zn106       O122   1.901       .  S
Zn107       O110   1.976       .  S
Zn107       O112   2.047       .  S
Zn107       O114   2.123       .  S
Zn107       O118   2.026       .  S
Zn108       O110   1.992       .  S
Zn108       O113   2.130       .  S
Zn108       O116   2.039       .  S
Zn108       O119   2.046       .  S
Zn109       O110   1.971       .  S
Zn109       O117   1.984       .  S
Zn109       O120   2.047       .  S
Zn109       O121   2.115       .  S
O111        C123   1.258       .  A
O112        C124   1.277       .  A
O113        C125   1.284       .  A
O114        C123   1.284       .  A
O115        C125   1.257       .  A
O116        C124   1.278       .  A
O117        C126   1.275       .  A
O118        C127   1.277       .  A
O119        C126   1.278       .  A
O120        C127   1.277       .  A
O121        C128   1.280       .  A
O122        C128   1.257       .  A
C123        C801   1.479       .  S
C124       C1116   1.491       .  S
C125        C813   1.494       .  S
C126        C864   1.482       .  S
C127        C825   1.500       .  S
C128        C981   1.479       .  S
C129        C777   1.565       .  S
C129        C789   1.567       .  S
C129        C804   1.574   1_565  S
C129       C1272   1.567       .  S
C130        C741   1.569       .  S
C130        C756   1.578       .  S
C130        C765   1.571       .  S
C130       C1404   1.568       .  S
Zn131       O135   1.919       .  S
Zn131       O136   2.085       .  S
Zn131       O140   2.013       .  S
Zn131       O147   2.021       .  S
Zn132       O135   1.826       .  S
Zn132       O137   1.942       .  S
Zn132       O139   1.933       .  S
Zn132       O143   1.938       .  S
Zn133       O135   1.921       .  S
Zn133       O138   2.044       .  S
Zn133       O141   2.127       .  S
Zn133       O144   2.030       .  S
Zn134       O135   1.925       .  S
Zn134       O142   2.056       .  S
Zn134       O145   2.108       .  S
Zn134       O146   2.026       .  S
O136        C148   1.280       .  A
O137        C149   1.263       .  A
O138        C150   1.280       .  A
O139        C148   1.263       .  A
O140        C150   1.276       .  A
O141        C149   1.284       .  A
O142        C151   1.281       .  A
O143        C152   1.264       .  A
O144        C151   1.278       .  A
O145        C152   1.283       .  A
O146        C153   1.277       .  A
O147        C153   1.277       .  A
C148        C705   1.481       .  S
C149       C1032   1.496       .  S
C150        C729   1.474       .  S
C151        C768   1.481       .  S
C152        C717   1.492       .  S
C153       C1161   1.471       .  S
C154        C681   1.561       .  S
C154        C696   1.575   1_655  S
C154        C708   1.554   1_655  S
C154       C1416   1.563       .  S
C155        C645   1.579       .  S
C155        C657   1.568       .  S
C155        C672   1.578       .  S
C155        C828   1.578   1_455  S
Zn156       O160   1.993   1_545  S
Zn156       O161   2.109   1_455  S
Zn156       O165   2.023       .  S
Zn156       O172   2.051       .  S
Zn157       O160   1.887   1_655  S
Zn157       O162   1.918       .  S
Zn157       O164   1.934       .  S
Zn157       O168   1.907       .  S
Zn158       O160   1.975   1_554  S
Zn158       O163   2.025       .  S
Zn158       O166   2.114   1_554  S
Zn158       O169   2.034       .  S
Zn159       O160   1.978   1_644  S
Zn159       O167   2.049   1_645  S
Zn159       O170   2.132   1_545  S
Zn159       O171   2.013       .  S
O161        C173   1.283       .  A
O162        C174   1.259   1_655  A
O163        C175   1.275   1_564  A
O164        C173   1.260   1_565  A
O165        C175   1.275       .  A
O166        C174   1.282       .  A
O167        C176   1.278       .  A
O168        C177   1.258   1_556  A
O169        C176   1.278       .  A
O170        C177   1.285       .  A
O171        C178   1.276       .  A
O172        C178   1.278   1_456  A
C173       C1452   1.496       .  S
C174        C612   1.477       .  S
C175        C621   1.473       .  S
C176        C633   1.490       .  S
C177       C1248   1.500       .  S
C178        C669   1.494       .  S
Zn179       O183   1.875       .  S
Zn179       O184   1.965       .  S
Zn179       O188   1.968       .  S
Zn179       O195   1.947       .  S
Zn180       O183   1.928       .  S
Zn180       O185   2.024       .  S
Zn180       O187   2.093       .  S
Zn180       O191   2.026       .  S
Zn181       O183   1.918       .  S
Zn181       O186   2.104       .  S
Zn181       O189   2.043       .  S
Zn181       O192   2.026       .  S
Zn182       O183   1.944       .  S
Zn182       O190   2.052       .  S
Zn182       O193   2.019       .  S
Zn182       O194   2.101       .  S
O184        C196   1.264       .  A
O185        C197   1.278       .  A
O186        C198   1.285       .  A
O187        C196   1.281       .  A
O188        C198   1.265       .  A
O189        C197   1.278       .  A
O190        C199   1.278       .  A
O191        C200   1.276       .  A
O192        C199   1.279       .  A
O193        C200   1.276       .  A
O194        C201   1.284       .  A
O195        C201   1.263       .  A
C196        C600   1.474       .  S
C197        C549   1.485       .  S
C198        C660   1.476       .  S
C199        C564   1.497       .  S
C200        C576   1.469       .  S
C201        C588   1.489       .  S
C202        C540   1.574       .  S
C202        C585   1.561       .  S
C202        C636   1.578   1_545  S
C202        C936   1.568   1_545  S
Zn203       O207   1.892   1_565  S
Zn203       O208   1.980       .  S
Zn203       O212   1.961       .  S
Zn203       O219   1.949       .  S
Zn204       O207   1.943   1_665  S
Zn204       O209   2.055       .  S
Zn204       O211   2.084       .  S
Zn204       O215   2.054   1_565  S
Zn205       O207   1.940       .  S
Zn205       O210   2.077   1_545  S
Zn205       O213   2.012       .  S
Zn205       O216   2.005       .  S
Zn206       O207   1.945       .  S
Zn206       O214   2.044       .  S
Zn206       O217   2.027   1_455  S
Zn206       O218   2.122       .  S
O208        C220   1.268       .  A
O209        C221   1.278       .  A
O210        C222   1.277       .  A
O211        C220   1.286   1_655  A
O212        C222   1.261       .  A
O213        C221   1.271   1_445  A
O214        C223   1.279       .  A
O215        C224   1.279       .  A
O216        C223   1.277       .  A
O217        C224   1.278       .  A
O218        C225   1.286       .  A
O219        C225   1.264   1_565  A
C220        C969   1.486       .  S
C221       C1440   1.479       .  S
C222        C888   1.466       .  S
C223        C693   1.486       .  S
C224        C996   1.495       .  S
C225        C537   1.493       .  S
C226        C525   1.576   1_556  S
C226        C597   1.573   1_556  S
C226        C624   1.566       .  S
C226        C732   1.565       .  S
Zn227       O231   1.852   1_565  S
Zn227       O232   1.964       .  S
Zn227       O236   1.949       .  S
Zn227       O243   1.952       .  S
Zn228       O231   1.920   1_556  S
Zn228       O233   2.014   1_545  S
Zn228       O235   2.071   1_545  S
Zn228       O239   2.001       .  S
Zn229       O231   1.929   1_566  S
Zn229       O234   2.123   1_556  S
Zn229       O237   2.033       .  S
Zn229       O240   2.055   1_566  S
Zn230       O231   1.922       .  S
Zn230       O238   2.019       .  S
Zn230       O241   2.051       .  S
Zn230       O242   2.113       .  S
O232        C244   1.263   1_554  A
O233        C245   1.276       .  A
O234        C246   1.287       .  A
O235        C244   1.279       .  A
O236        C246   1.264       .  A
O237        C245   1.278       .  A
O238        C247   1.279       .  A
O239        C248   1.275       .  A
O240        C247   1.282       .  A
O241        C248   1.280   1_554  A
O242        C249   1.284       .  A
O243        C249   1.263   1_565  A
C244       C1236   1.465       .  S
C245       C1176   1.490       .  S
C246       C1224   1.493       .  S
C247        C528   1.496       .  S
C248        C753   1.491       .  S
C249        C792   1.476       .  S
Zn250       O254   1.871   1_565  S
Zn250       O255   1.876       .  S
Zn250       O259   1.903       .  S
Zn250       O266   1.907       .  S
Zn251       O254   2.001       .  S
Zn251       O256   2.064       .  S
Zn251       O258   2.173       .  S
Zn251       O262   2.048       .  S
Zn252       O254   1.984   1_565  S
Zn252       O257   2.123       .  S
Zn252       O260   2.050   1_565  S
Zn252       O263   2.024       .  S
Zn253       O254   1.994       .  S
Zn253       O261   2.040   1_545  S
Zn253       O264   2.037       .  S
Zn253       O265   2.122   1_545  S
O255        C267   1.252   1_565  A
O256        C268   1.281       .  A
O257        C269   1.282       .  A
O258        C267   1.286       .  A
O259        C269   1.257       .  A
O260        C268   1.278       .  A
O261        C270   1.277       .  A
O262        C271   1.280       .  A
O263        C270   1.275       .  A
O264        C271   1.279       .  A
O265        C272   1.281       .  A
O266        C272   1.256       .  A
C267       C1188   1.509       .  S
C268       C1008   1.491       .  S
C269        C501   1.482       .  S
C270        C780   1.477       .  S
C271        C516   1.490       .  S
C272        C897   1.494       .  S
C273        C489   1.564       .  S
C273        C513   1.578       .  S
C273        C573   1.562       .  S
C273        C816   1.562       .  S
Zn274       O278   1.925       .  S
Zn274       O279   2.047       .  S
Zn274       O283   2.023       .  S
Zn274       O290   2.116   1_556  S
Zn275       O278   1.936   1_554  S
Zn275       O280   2.018   1_454  S
Zn275       O282   2.023       .  S
Zn275       O286   2.079   1_455  S
Zn276       O278   1.920   1_655  S
Zn276       O281   2.053   1_655  S
Zn276       O284   2.014       .  S
Zn276       O287   2.111       .  S
Zn277       O278   1.857   1_654  S
Zn277       O285   1.951       .  S
Zn277       O288   1.950       .  S
Zn277       O289   1.970       .  S
O279        C291   1.279   1_556  A
O280        C292   1.274       .  A
O281        C293   1.282       .  A
O282        C291   1.278       .  A
O283        C293   1.278       .  A
O284        C292   1.275       .  A
O285        C294   1.265   1_554  A
O286        C295   1.279       .  A
O287        C294   1.287       .  A
O288        C295   1.264       .  A
O289        C296   1.264   1_655  A
O290        C296   1.287       .  A
C291       C1080   1.499       .  S
C292        C477   1.468       .  S
C293       C1056   1.495       .  S
C294       C1128   1.492       .  S
C295        C852   1.476       .  S
C296        C648   1.489       .  S
Zn297       O301   1.862       .  S
Zn297       O302   1.953       .  S
Zn297       O306   1.973       .  S
Zn297       O313   1.953       .  S
Zn298       O301   1.929   1_554  S
Zn298       O303   1.996       .  S
Zn298       O305   2.076       .  S
Zn298       O309   2.008       .  S
Zn299       O301   1.921       .  S
Zn299       O304   2.082       .  S
Zn299       O307   2.027       .  S
Zn299       O310   2.025       .  S
Zn300       O301   1.945   1_554  S
Zn300       O308   2.033   1_554  S
Zn300       O311   2.030       .  S
Zn300       O312   2.104   1_554  S
O302        C314   1.265   1_556  A
O303        C315   1.274       .  A
O304        C316   1.282       .  A
O305        C314   1.281       .  A
O306        C316   1.266       .  A
O307        C315   1.275   1_556  A
O308        C317   1.276       .  A
O309        C318   1.274       .  A
O310        C317   1.281       .  A
O311        C318   1.278       .  A
O312        C319   1.282       .  A
O313        C319   1.266       .  A
C314       C1140   1.486   1_554  S
C315       C1209   1.479       .  S
C316       C1353   1.482       .  S
C317       C1092   1.495       .  S
C318        C465   1.469       .  S
C319        C744   1.488       .  S
Zn320       O324   1.967       .  S
Zn320       O325   2.087       .  S
Zn320       O329   2.050       .  S
Zn320       O336   2.015       .  S
Zn321       O324   1.901       .  S
Zn321       O326   1.944       .  S
Zn321       O328   1.919       .  S
Zn321       O332   1.930       .  S
Zn322       O324   1.980   1_455  S
Zn322       O327   2.022       .  S
Zn322       O330   2.093       .  S
Zn322       O333   2.021       .  S
Zn323       O324   1.975       .  S
Zn323       O331   2.002   1_655  S
Zn323       O334   2.098       .  S
Zn323       O335   2.032       .  S
O325        C337   1.283       .  A
O326        C338   1.264   1_655  A
O327        C339   1.273       .  A
O328        C337   1.260       .  A
O329        C339   1.277   1_655  A
O330        C338   1.281       .  A
O331        C340   1.276       .  A
O332        C341   1.260       .  A
O333        C340   1.275       .  A
O334        C341   1.279       .  A
O335        C342   1.275       .  A
O336        C342   1.274       .  A
C337       C1332   1.470       .  S
C338        C960   1.478       .  S
C339       C1044   1.482       .  S
C340        C453   1.486       .  S
C341        C840   1.478       .  S
C342        C684   1.473       .  S
C343        C441   1.578       .  S
C343        C456   1.566       .  S
C343        C561   1.585       .  S
C343        C720   1.567       .  S
Zn344       O348   1.885       .  S
Zn344       O349   1.922       .  S
Zn344       O353   1.928       .  S
Zn344       O360   1.951       .  S
Zn345       O348   1.964       .  S
Zn345       O350   2.034       .  S
Zn345       O352   2.099       .  S
Zn345       O356   2.016       .  S
Zn346       O348   1.954       .  S
Zn346       O351   2.103       .  S
Zn346       O354   2.004       .  S
Zn346       O357   2.044       .  S
Zn347       O348   1.959       .  S
Zn347       O355   2.007       .  S
Zn347       O358   2.014       .  S
Zn347       O359   2.072       .  S
O349        C361   1.260       .  A
O350        C362   1.276       .  A
O351        C363   1.284       .  A
O352        C361   1.283       .  A
O353        C363   1.260       .  A
O354        C362   1.274       .  A
O355        C364   1.274       .  A
O356        C365   1.276       .  A
O357        C364   1.278       .  A
O358        C365   1.273       .  A
O359        C366   1.280       .  A
O360        C366   1.265       .  A
C361        C429   1.492       .  S
C362        C417   1.474       .  S
C363        C444   1.478       .  S
C364       C1368   1.492       .  S
C365       C1320   1.486       .  S
C366        C492   1.479       .  S
C367        C432   1.565       .  S
C367        C468   1.557       .  S
C367        C552   1.577       .  S
C367        C924   1.573       .  S
C368        C405   1.561       .  S
C368        C480   1.563       .  S
C368        C609   1.578       .  S
C368       C1536   1.562   1_455  S
Zn369       O373   1.876       .  S
Zn369       O374   1.923       .  S
Zn369       O378   1.906       .  S
Zn369       O385   1.891       .  S
Zn370       O373   1.966       .  S
Zn370       O375   1.988       .  S
Zn370       O377   2.089       .  S
Zn370       O381   2.007       .  S
Zn371       O373   1.981       .  S
Zn371       O376   2.114       .  S
Zn371       O379   2.029       .  S
Zn371       O382   2.027       .  S
Zn372       O373   1.986       .  S
Zn372       O380   2.036       .  S
Zn372       O383   2.054       .  S
Zn372       O384   2.137       .  S
O374        C386   1.259       .  A
O375        C387   1.272       .  A
O376        C388   1.282       .  A
O377        C386   1.278       .  A
O378        C388   1.259       .  A
O379        C387   1.276       .  A
O380        C389   1.276       .  A
O381        C390   1.274       .  A
O382        C389   1.276       .  A
O383        C390   1.281       .  A
O384        C391   1.285       .  A
O385        C391   1.256       .  A
C386       C1152   1.472       .  S
C387        C408   1.479       .  S
C388        C876   1.482       .  S
C389       C1020   1.479       .  S
C390       C1068   1.494       .  S
C391        C393   1.496       .  S
C392        C396   1.564       .  S
C392        C420   1.558       .  S
C392        C504   1.573       .  S
C392       C1500   1.560       .  S
C393        C394   1.398       .  A
C393        C398   1.423       .  A
C394        C395   1.411       .  A
C394        H399   1.083       .  S
C395        C396   1.431       .  A
C395        O400   1.372       .  S
C396        C397   1.404       .  A
C397        C398   1.392       .  A
C397        H401   1.081       .  S
C398        O402   1.373       .  S
O400        H404   0.990       .  S
O402        H403   0.992       .  S
C405        C406   1.413       .  A
C405        C410   1.431       .  A
C406        C407   1.393       .  A
C406        H411   1.084       .  S
C407        C408   1.408       .  A
C407        O412   1.373       .  S
C408        C409   1.397       .  A
C409        C410   1.406       .  A
C409        H413   1.084       .  S
C410        O414   1.371       .  S
O412        H416   0.992       .  S
O414        H415   0.993       .  S
C417        C418   1.401       .  A
C417        C422   1.397       .  A
C418        C419   1.401       .  A
C418        H423   1.085       .  S
C419        C420   1.421       .  A
C419        O424   1.372       .  S
C420        C421   1.424       .  A
C421        C422   1.403       .  A
C421        H425   1.083       .  S
C422        O426   1.371       .  S
O424        H428   0.991       .  S
O426        H427   0.992       .  S
C429        C430   1.397       .  A
C429        C434   1.422       .  A
C430        C431   1.403       .  A
C430        H435   1.083       .  S
C431        C432   1.429       .  A
C431        O436   1.370       .  S
C432        C433   1.404       .  A
C433        C434   1.397       .  A
C433        H437   1.079       .  S
C434        O438   1.372       .  S
O436        H440   0.991       .  S
O438        H439   0.991       .  S
C441        C442   1.428       .  A
C441        C446   1.419       .  A
C442        C443   1.395       .  A
C442        H447   1.076       .  S
C443        C444   1.395       .  A
C443        O448   1.372       .  S
C444        C445   1.409       .  A
C445        C446   1.409       .  A
C445        H449   1.084       .  S
C446        O450   1.373       .  S
O448        H452   0.991       .  S
O450        H451   0.991       .  S
C453        C454   1.403       .  A
C453        C458   1.410       .  A
C454        C455   1.394       .  A
C454        H459   1.084       .  S
C455        C456   1.422       .  A
C455        O460   1.372       .  S
C456        C457   1.415       .  A
C457        C458   1.405       .  A
C457        H461   1.079       .  S
C458        O462   1.371       .  S
O460        H464   0.992       .  S
O462        H463   0.990       .  S
C465        C466   1.404       .  A
C465        C470   1.394       .  A
C466        C467   1.405       .  A
C466        H471   1.084       .  S
C467        C468   1.418       .  A
C467        O472   1.371       .  S
C468        C469   1.425       .  A
C469        C470   1.398       .  A
C469        H473   1.083       .  S
C470        O474   1.371       .  S
O472        H476   0.993       .  S
O474        H475   0.993       .  S
C477        C478   1.397   1_655  A
C477        C482   1.397       .  A
C478        C479   1.398       .  A
C478        H483   1.085       .  S
C479        C480   1.426       .  A
C479        O484   1.372       .  S
C480        C481   1.424   1_455  A
C481        C482   1.402       .  A
C481        H485   1.083       .  S
C482        O486   1.371       .  S
O484        H488   0.989       .  S
O486        H487   0.992       .  S
C489        C490   1.422       .  A
C489        C494   1.419       .  A
C490        C491   1.398       .  A
C490        H495   1.079       .  S
C491        C492   1.399       .  A
C491        O496   1.372       .  S
C492        C493   1.406       .  A
C493        C494   1.405       .  A
C493        H497   1.084       .  S
C494        O498   1.375       .  S
O496        H500   0.993       .  S
O498        H499   0.991       .  S
C501        C502   1.402       .  A
C501        C506   1.404       .  A
C502        C503   1.396       .  A
C502        H507   1.085       .  S
C503        C504   1.420       .  A
C503        O508   1.373       .  S
C504        C505   1.425       .  A
C505        C506   1.412       .  A
C505        H509   1.080       .  S
C506        O510   1.371       .  S
O508        H512   0.994       .  S
O510        H511   0.991       .  S
C513        C514   1.425       .  A
C513        C518   1.422       .  A
C514        C515   1.403       .  A
C514        H519   1.078       .  S
C515        C516   1.402       .  A
C515        O520   1.372       .  S
C516        C517   1.404       .  A
C517        C518   1.408       .  A
C517        H521   1.081       .  S
C518        O522   1.372       .  S
O520        H524   0.992       .  S
O522        H523   0.992       .  S
C525        C526   1.424       .  A
C525        C530   1.421       .  A
C526        C527   1.407       .  A
C526        H531   1.078       .  S
C527        C528   1.407       .  A
C527        O532   1.372       .  S
C528        C529   1.405       .  A
C529        C530   1.403       .  A
C529        H533   1.083       .  S
C530        O534   1.373       .  S
O532        H536   0.993   1_545  S
O534        H535   0.990       .  S
C537        C538   1.411   1_545  A
C537        C542   1.402       .  A
C538        C539   1.407       .  A
C538        H543   1.084       .  S
C539        C540   1.415   1_565  A
C539        O544   1.371       .  S
C540        C541   1.427       .  A
C541        C542   1.406       .  A
C541        H545   1.081       .  S
C542        O546   1.372       .  S
O544        H548   0.989       .  S
O546        H547   0.996       .  S
C549        C550   1.394       .  A
C549        C554   1.411       .  A
C550        C551   1.400       .  A
C550        H555   1.084       .  S
C551        C552   1.435       .  A
C551        O556   1.374       .  S
C552        C553   1.415       .  A
C553        C554   1.408       .  A
C553        H557   1.083       .  S
C554        O558   1.372       .  S
O556        H560   0.993       .  S
O558        H559   0.992       .  S
C561        C562   1.423       .  A
C561        C566   1.421       .  A
C562        C563   1.392       .  A
C562        H567   1.076       .  S
C563        C564   1.401       .  A
C563        O568   1.373       .  S
C564        C565   1.413       .  A
C565        C566   1.418       .  A
C565        H569   1.083       .  S
C566        O570   1.371       .  S
O568        H572   0.992       .  S
O570        H571   0.992       .  S
C573        C574   1.422       .  A
C573        C578   1.421       .  A
C574        C575   1.398       .  A
C574        H579   1.083       .  S
C575        C576   1.395       .  A
C575        O580   1.371       .  S
C576        C577   1.401       .  A
C577        C578   1.404       .  A
C577        H581   1.084       .  S
C578        O582   1.370       .  S
O580        H584   0.992       .  S
O582        H583   0.991       .  S
C585        C586   1.424       .  A
C585        C590   1.413       .  A
C586        C587   1.399       .  A
C586        H591   1.082       .  S
C587        C588   1.399       .  A
C587        O592   1.371       .  S
C588        C589   1.414       .  A
C589        C590   1.404       .  A
C589        H593   1.084       .  S
C590        O594   1.370       .  S
O592        H596   0.993       .  S
O594        H595   0.995       .  S
C597        C598   1.426       .  A
C597        C602   1.422       .  A
C598        C599   1.404       .  A
C598        H603   1.078       .  S
C599        C600   1.398       .  A
C599        O604   1.372       .  S
C600        C601   1.400       .  A
C601        C602   1.403       .  A
C601        H605   1.084       .  S
C602        O606   1.374       .  S
O604        H608   0.992       .  S
O606        H607   0.990       .  S
C609        C610   1.425       .  A
C609        C614   1.423       .  A
C610        C611   1.411       .  A
C610        H615   1.079       .  S
C611        C612   1.402       .  A
C611        O616   1.371   1_556  S
C612        C613   1.400       .  A
C613        C614   1.397       .  A
C613        H617   1.085       .  S
C614        O618   1.372       .  S
O616        H620   0.990       .  S
O618        H619   0.991   1_455  S
C621        C622   1.394       .  A
C621        C626   1.406   1_556  A
C622        C623   1.405       .  A
C622        H627   1.084       .  S
C623        C624   1.430       .  A
C623        O628   1.373       .  S
C624        C625   1.413   1_556  A
C625        C626   1.400       .  A
C625        H629   1.079       .  S
C626        O630   1.373       .  S
O628        H632   0.992       .  S
O630        H631   0.992       .  S
C633        C634   1.409   1_565  A
C633        C638   1.398       .  A
C634        C635   1.416       .  A
C634        H639   1.084       .  S
C635        C636   1.421   1_545  A
C635        O640   1.373       .  S
C636        C637   1.425       .  A
C637        C638   1.397       .  A
C637        H641   1.080       .  S
C638        O642   1.372       .  S
O640        H644   0.997       .  S
O642        H643   0.989       .  S
C645        C646   1.414   1_455  A
C645        C650   1.432       .  A
C646        C647   1.410       .  A
C646        H651   1.083       .  S
C647        C648   1.412   1_655  A
C647        O652   1.371       .  S
C648        C649   1.395       .  A
C649        C650   1.405       .  A
C649        H653   1.084       .  S
C650        O654   1.375       .  S
O652        H656   0.991   1_554  S
O654        H655   0.992       .  S
C657        C658   1.419       .  A
C657        C662   1.421       .  A
C658        C659   1.409       .  A
C658        H663   1.079       .  S
C659        C660   1.403       .  A
C659        O664   1.371       .  S
C660        C661   1.400       .  A
C661        C662   1.400       .  A
C661        H665   1.084       .  S
C662        O666   1.372       .  S
O664        H668   0.991       .  S
O666        H667   0.991       .  S
C669        C670   1.403       .  A
C669        C674   1.409   1_655  A
C670        C671   1.398   1_655  A
C670        H675   1.084       .  S
C671        C672   1.423       .  A
C671        O676   1.373       .  S
C672        C673   1.420       .  A
C673        C674   1.413       .  A
C673        H677   1.077       .  S
C674        O678   1.372   1_454  S
O676        H680   0.991   1_455  S
O678        H679   0.991   1_655  S
C681        C682   1.422       .  A
C681        C686   1.424   1_655  A
C682        C683   1.405       .  A
C682        H687   1.083       .  S
C683        C684   1.398       .  A
C683        O688   1.371       .  S
C684        C685   1.397   1_655  A
C685        C686   1.399       .  A
C685        H689   1.082       .  S
C686        O690   1.373       .  S
O688        H692   0.991       .  S
O690        H691   0.994       .  S
C693        C694   1.402       .  A
C693        C698   1.403       .  A
C694        C695   1.400       .  A
C694        H699   1.084       .  S
C695        C696   1.424       .  A
C695        O700   1.373   1_455  S
C696        C697   1.424       .  A
C697        C698   1.407       .  A
C697        H701   1.079       .  S
C698        O702   1.371       .  S
O700        H704   0.994       .  S
O702        H703   0.992       .  S
C705        C706   1.404       .  A
C705        C710   1.404       .  A
C706        C707   1.394       .  A
C706        H711   1.084       .  S
C707        C708   1.419       .  A
C707        O712   1.374       .  S
C708        C709   1.420       .  A
C709        C710   1.403       .  A
C709        H713   1.080       .  S
C710        O714   1.371       .  S
O712        H716   0.992       .  S
O714        H715   0.992       .  S
C717        C718   1.405       .  A
C717        C722   1.413       .  A
C718        C719   1.410       .  A
C718        H723   1.083       .  S
C719        C720   1.422       .  A
C719        O724   1.368       .  S
C720        C721   1.416       .  A
C721        C722   1.391       .  A
C721        H725   1.083       .  S
C722        O726   1.373       .  S
O724        H728   0.990       .  S
O726        H727   0.991       .  S
C729        C730   1.393       .  A
C729        C734   1.406       .  A
C730        C731   1.404       .  A
C730        H735   1.084       .  S
C731        C732   1.431       .  A
C731        O736   1.372       .  S
C732        C733   1.411       .  A
C733        C734   1.400       .  A
C733        H737   1.079       .  S
C734        O738   1.371       .  S
O736        H740   0.990       .  S
O738        H739   0.991       .  S
C741        C742   1.423       .  A
C741        C746   1.423       .  A
C742        C743   1.410       .  A
C742        H747   1.083       .  S
C743        C744   1.403       .  A
C743        O748   1.371       .  S
C744        C745   1.404       .  A
C745        C746   1.396       .  A
C745        H749   1.084       .  S
C746        O750   1.374       .  S
O748        H752   0.991       .  S
O750        H751   0.992       .  S
C753        C754   1.405       .  A
C753        C758   1.404       .  A
C754        C755   1.402       .  A
C754        H759   1.084       .  S
C755        C756   1.423       .  A
C755        O760   1.374       .  S
C756        C757   1.425       .  A
C757        C758   1.405       .  A
C757        H761   1.077       .  S
C758        O762   1.372   1_556  S
O760        H764   0.992       .  S
O762        H763   0.990       .  S
C765        C766   1.413       .  A
C765        C770   1.431       .  A
C766        C767   1.402       .  A
C766        H771   1.078       .  S
C767        C768   1.406       .  A
C767        O772   1.371       .  S
C768        C769   1.395       .  A
C769        C770   1.408       .  A
C769        H773   1.083       .  S
C770        O774   1.371       .  S
O772        H776   0.994       .  S
O774        H775   0.992       .  S
C777        C778   1.414   1_565  A
C777        C782   1.429       .  A
C778        C779   1.403       .  A
C778        H783   1.081       .  S
C779        C780   1.406   1_545  A
C779        O784   1.372       .  S
C780        C781   1.394       .  A
C781        C782   1.405       .  A
C781        H785   1.084       .  S
C782        O786   1.372       .  S
O784        H788   0.992       .  S
O786        H787   0.992       .  S
C789        C790   1.424   1_565  A
C789        C794   1.420       .  A
C790        C791   1.407       .  A
C790        H795   1.079       .  S
C791        C792   1.399       .  A
C791        O796   1.371       .  S
C792        C793   1.401       .  A
C793        C794   1.401   1_545  A
C793        H797   1.084   1_545  S
C794        O798   1.373       .  S
O796        H800   0.992   1_545  S
O798        H799   0.992   1_565  S
C801        C802   1.400       .  A
C801        C806   1.402       .  A
C802        C803   1.397       .  A
C802        H807   1.084       .  S
C803        C804   1.420       .  A
C803        O808   1.373       .  S
C804        C805   1.426       .  A
C805        C806   1.411       .  A
C805        H809   1.079   1_545  S
C806        O810   1.371       .  S
O808        H812   0.992       .  S
O810        H811   0.993       .  S
C813        C814   1.397       .  A
C813        C818   1.421       .  A
C814        C815   1.408       .  A
C814        H819   1.083       .  S
C815        C816   1.431       .  A
C815        O820   1.371       .  S
C816        C817   1.402       .  A
C817        C818   1.396       .  A
C817        H821   1.081       .  S
C818        O822   1.373       .  S
O820        H824   0.991       .  S
O822        H823   0.985       .  S
C825        C826   1.411       .  A
C825        C830   1.407       .  A
C826        C827   1.416       .  A
C826        H831   1.083       .  S
C827        C828   1.420       .  A
C827        O832   1.374       .  S
C828        C829   1.420       .  A
C829        C830   1.397       .  A
C829        H833   1.080       .  S
C830        O834   1.372       .  S
O832        H836   0.991       .  S
O834        H835   0.991       .  S
C837        C838   1.414       .  A
C837        C842   1.433       .  A
C838        C839   1.391       .  A
C838        H843   1.083       .  S
C839        C840   1.406       .  A
C839        O844   1.373       .  S
C840        C841   1.398       .  A
C841        C842   1.412       .  A
C841        H845   1.083       .  S
C842        O846   1.371       .  S
O844        H848   0.992       .  S
O846        H847   0.997       .  S
C849        C850   1.423       .  A
C849        C854   1.420       .  A
C850        C851   1.403       .  A
C850        H855   1.083       .  S
C851        C852   1.398       .  A
C851        O856   1.371       .  S
C852        C853   1.404       .  A
C853        C854   1.397       .  A
C853        H857   1.084       .  S
C854        O858   1.372       .  S
O856        H860   0.991       .  S
O858        H859   0.994       .  S
C861        C862   1.422       .  A
C861        C866   1.420       .  A
C862        C863   1.408       .  A
C862        H867   1.079       .  S
C863        C864   1.404       .  A
C863        O868   1.371       .  S
C864        C865   1.402       .  A
C865        C866   1.392       .  A
C865        H869   1.084       .  S
C866        O870   1.374       .  S
O868        H872   0.992       .  S
O870        H871   0.992       .  S
C873        C874   1.410       .  A
C873        C878   1.434       .  A
C874        C875   1.391       .  A
C874        H879   1.083       .  S
C875        C876   1.409       .  A
C875        O880   1.374       .  S
C876        C877   1.398       .  A
C877        C878   1.413       .  A
C877        H881   1.083       .  S
C878        O882   1.372       .  S
O880        H884   0.992       .  S
O882        H883   0.991       .  S
C885        C886   1.424       .  A
C885        C890   1.421       .  A
C886        C887   1.402       .  A
C886        H891   1.079       .  S
C887        C888   1.398       .  A
C887        O892   1.371   1_565  S
C888        C889   1.398       .  A
C889        C890   1.398       .  A
C889        H893   1.083       .  S
C890        O894   1.373       .  S
O892        H896   0.992       .  S
O894        H895   0.991       .  S
C897        C898   1.398       .  A
C897        C902   1.419       .  A
C898        C899   1.410       .  A
C898        H903   1.083       .  S
C899        C900   1.429       .  A
C899        O904   1.373       .  S
C900        C901   1.406       .  A
C901        C902   1.395       .  A
C901        H905   1.081       .  S
C902        O906   1.374       .  S
O904        H908   0.992       .  S
O906        H907   0.992       .  S
C909        C910   1.406       .  A
C909        C914   1.396       .  A
C910        C911   1.401       .  A
C910        H915   1.084       .  S
C911        C912   1.419       .  A
C911        O916   1.372       .  S
C912        C913   1.423       .  A
C913        C914   1.399       .  A
C913        H917   1.082       .  S
C914        O918   1.371       .  S
O916        H920   0.994       .  S
O918        H919   0.992       .  S
C921        C922   1.405       .  A
C921        C926   1.399       .  A
C922        C923   1.408       .  A
C922        H927   1.084       .  S
C923        C924   1.420       .  A
C923        O928   1.370       .  S
C924        C925   1.426       .  A
C925        C926   1.400       .  A
C925        H929   1.079       .  S
C926        O930   1.372       .  S
O928        H932   0.990       .  S
O930        H931   0.993       .  S
C933        C934   1.417       .  A
C933        C938   1.401       .  A
C934        C935   1.409       .  A
C934        H939   1.083       .  S
C935        C936   1.414       .  A
C935        O940   1.373       .  S
C936        C937   1.424       .  A
C937        C938   1.403       .  A
C937        H941   1.081       .  S
C938        O942   1.371       .  S
O940        H944   0.991       .  S
O942        H943   0.992       .  S
C945        C946   1.413       .  A
C945        C950   1.434       .  A
C946        C947   1.409       .  A
C946        H951   1.083       .  S
C947        C948   1.414       .  A
C947        O952   1.371       .  S
C948        C949   1.395       .  A
C949        C950   1.402       .  A
C949        H953   1.084       .  S
C950        O954   1.374       .  S
O952        H956   0.993       .  S
O954        H955   0.992       .  S
C957        C958   1.422       .  A
C957        C962   1.423       .  A
C958        C959   1.410       .  A
C958        H963   1.077       .  S
C959        C960   1.403       .  A
C959        O964   1.371       .  S
C960        C961   1.399       .  A
C961        C962   1.396       .  A
C961        H965   1.084       .  S
C962        O966   1.373   1_455  S
O964        H968   0.992   1_455  S
O966        H967   0.991   1_655  S
C969        C970   1.412       .  A
C969        C974   1.398   1_455  A
C970        C971   1.414       .  A
C970        H975   1.084       .  S
C971        C972   1.422       .  A
C971        O976   1.371       .  S
C972        C973   1.422   1_455  A
C973        C974   1.392       .  A
C973        H977   1.077       .  S
C974        O978   1.372       .  S
O976        H980   0.992       .  S
O978        H979   0.993       .  S
C981        C982   1.402       .  A
C981        C986   1.401       .  A
C982        C983   1.394       .  A
C982        H987   1.085       .  S
C983        C984   1.417       .  A
C983        O988   1.371       .  S
C984        C985   1.427       .  A
C985        C986   1.411       .  A
C985        H989   1.081       .  S
C986        O990   1.371       .  S
O988        H992   0.990       .  S
O990        H991   0.991       .  S
C993        C994   1.415       .  A
C993        C998   1.430       .  A
C994        C995   1.397       .  A
C994        H999   1.082       .  S
C995        C996   1.409       .  A
C995       O1000   1.373       .  S
C996        C997   1.404       .  A
C997        C998   1.416       .  A
C997       H1001   1.083       .  S
C998       O1002   1.373       .  S
O1000      H1004   0.991       .  S
O1002      H1003   0.992       .  S
C1005      C1006   1.414       .  A
C1005      C1010   1.429       .  A
C1006      C1007   1.404       .  A
C1006      H1011   1.081       .  S
C1007      C1008   1.407       .  A
C1007      O1012   1.371       .  S
C1008      C1009   1.399       .  A
C1009      C1010   1.414       .  A
C1009      H1013   1.083       .  S
C1010      O1014   1.373       .  S
O1012      H1016   0.991       .  S
O1014      H1015   0.992       .  S
C1017      C1018   1.412       .  A
C1017      C1022   1.431       .  A
C1018      C1019   1.402       .  A
C1018      H1023   1.080       .  S
C1019      C1020   1.408       .  A
C1019      O1024   1.373       .  S
C1020      C1021   1.395       .  A
C1021      C1022   1.407       .  A
C1021      H1025   1.083       .  S
C1022      O1026   1.373       .  S
O1024      H1028   0.993       .  S
O1026      H1027   0.992       .  S
C1029      C1030   1.425       .  A
C1029      C1034   1.419       .  A
C1030      C1031   1.411       .  A
C1030      H1035   1.080       .  S
C1031      C1032   1.405       .  A
C1031      O1036   1.371       .  S
C1032      C1033   1.407       .  A
C1033      C1034   1.401       .  A
C1033      H1037   1.084       .  S
C1034      O1038   1.372       .  S
O1036      H1040   0.991       .  S
O1038      H1039   0.991       .  S
C1041      C1042   1.410       .  A
C1041      C1046   1.431       .  A
C1042      C1043   1.405       .  A
C1042      H1047   1.081       .  S
C1043      C1044   1.408       .  A
C1043      O1048   1.374       .  S
C1044      C1045   1.395       .  A
C1045      C1046   1.409       .  A
C1045      H1049   1.083       .  S
C1046      O1050   1.373       .  S
O1048      H1052   0.990       .  S
O1050      H1051   0.995       .  S
C1053      C1054   1.415       .  A
C1053      C1058   1.435       .  A
C1054      C1055   1.402       .  A
C1054      H1059   1.083       .  S
C1055      C1056   1.412       .  A
C1055      O1060   1.372       .  S
C1056      C1057   1.398       .  A
C1057      C1058   1.409       .  A
C1057      H1061   1.084       .  S
C1058      O1062   1.372       .  S
O1060      H1064   0.992       .  S
O1062      H1063   0.994       .  S
C1065      C1066   1.418       .  A
C1065      C1070   1.419       .  A
C1066      C1067   1.401       .  A
C1066      H1071   1.083       .  S
C1067      C1068   1.410       .  A
C1067      O1072   1.372       .  S
C1068      C1069   1.408       .  A
C1069      C1070   1.408       .  A
C1069      H1073   1.083       .  S
C1070      O1074   1.369       .  S
O1072      H1076   0.991       .  S
O1074      H1075   0.993       .  S
C1077      C1078   1.416       .  A
C1077      C1082   1.425       .  A
C1078      C1079   1.397   1_556  A
C1078      H1083   1.083       .  S
C1079      C1080   1.411       .  A
C1079      O1084   1.373       .  S
C1080      C1081   1.408   1_554  A
C1081      C1082   1.417       .  A
C1081      H1085   1.083       .  S
C1082      O1086   1.372       .  S
O1084      H1088   0.991   1_554  S
O1086      H1087   0.993       .  S
C1089      C1090   1.413   1_556  A
C1089      C1094   1.434       .  A
C1090      C1091   1.413       .  A
C1090      H1095   1.083       .  S
C1091      C1092   1.416   1_554  A
C1091      O1096   1.371       .  S
C1092      C1093   1.395       .  A
C1093      C1094   1.397       .  A
C1093      H1097   1.084       .  S
C1094      O1098   1.375       .  S
O1096      H1100   0.991       .  S
O1098      H1099   0.993       .  S
C1101      C1102   1.420       .  A
C1101      C1106   1.423       .  A
C1102      C1103   1.396       .  A
C1102      H1107   1.079       .  S
C1103      C1104   1.406       .  A
C1103      O1108   1.373       .  S
C1104      C1105   1.411       .  A
C1105      C1106   1.420       .  A
C1105      H1109   1.083       .  S
C1106      O1110   1.372       .  S
O1108      H1112   0.990       .  S
O1110      H1111   0.992       .  S
C1113      C1114   1.415       .  A
C1113      C1118   1.438       .  A
C1114      C1115   1.410       .  A
C1114      H1119   1.083       .  S
C1115      C1116   1.412       .  A
C1115      O1120   1.371       .  S
C1116      C1117   1.394       .  A
C1117      C1118   1.402       .  A
C1117      H1121   1.084       .  S
C1118      O1122   1.373       .  S
O1120      H1124   0.991       .  S
O1122      H1123   0.991       .  S
C1125      C1126   1.425   1_554  A
C1125      C1130   1.414       .  A
C1126      C1127   1.401       .  A
C1126      H1131   1.083       .  S
C1127      C1128   1.401       .  A
C1127      O1132   1.371       .  S
C1128      C1129   1.414   1_556  A
C1129      C1130   1.404       .  A
C1129      H1133   1.083       .  S
C1130      O1134   1.370       .  S
O1132      H1136   0.992       .  S
O1134      H1135   0.993       .  S
C1137      C1138   1.424   1_556  A
C1137      C1142   1.415       .  A
C1138      C1139   1.400       .  A
C1138      H1143   1.082       .  S
C1139      C1140   1.400   1_554  A
C1139      O1144   1.371       .  S
C1140      C1141   1.410       .  A
C1141      C1142   1.401       .  A
C1141      H1145   1.084       .  S
C1142      O1146   1.372       .  S
O1144      H1148   0.992       .  S
O1146      H1147   0.994       .  S
C1149      C1150   1.424       .  A
C1149      C1154   1.424       .  A
C1150      C1151   1.406       .  A
C1150      H1155   1.080       .  S
C1151      C1152   1.401       .  A
C1151      O1156   1.372       .  S
C1152      C1153   1.398       .  A
C1153      C1154   1.397       .  A
C1153      H1157   1.084       .  S
C1154      O1158   1.373       .  S
O1156      H1160   0.992       .  S
O1158      H1159   0.992       .  S
C1161      C1162   1.393       .  A
C1161      C1166   1.404       .  A
C1162      C1163   1.405       .  A
C1162      H1167   1.083       .  S
C1163      C1164   1.432       .  A
C1163      O1168   1.372       .  S
C1164      C1165   1.409       .  A
C1165      C1166   1.396       .  A
C1165      H1169   1.078       .  S
C1166      O1170   1.370       .  S
O1168      H1172   0.994       .  S
O1170      H1171   0.992       .  S
C1173      C1174   1.418       .  A
C1173      C1178   1.431       .  A
C1174      C1175   1.399   1_545  A
C1174      H1179   1.083       .  S
C1175      C1176   1.408       .  A
C1175      O1180   1.372       .  S
C1176      C1177   1.401       .  A
C1177      C1178   1.405   1_565  A
C1177      H1181   1.084       .  S
C1178      O1182   1.369       .  S
O1180      H1184   0.989   1_565  S
O1182      H1183   0.991       .  S
C1185      C1186   1.401   1_545  A
C1185      C1190   1.432       .  A
C1186      C1187   1.389       .  A
C1186      H1191   1.078       .  S
C1187      C1188   1.427   1_565  A
C1187      O1192   1.373       .  S
C1188      C1189   1.404       .  A
C1189      C1190   1.418       .  A
C1189      H1193   1.083       .  S
C1190      O1194   1.372       .  S
O1192      H1196   0.993       .  S
O1194      H1195   0.993       .  S
C1197      C1198   1.423       .  A
C1197      C1202   1.428       .  A
C1198      C1199   1.406       .  A
C1198      H1203   1.083       .  S
C1199      C1200   1.399       .  A
C1199      O1204   1.371       .  S
C1200      C1201   1.397       .  A
C1201      C1202   1.401       .  A
C1201      H1205   1.085       .  S
C1202      O1206   1.372       .  S
O1204      H1208   0.992       .  S
O1206      H1207   0.993       .  S
C1209      C1210   1.401       .  A
C1209      C1214   1.404       .  A
C1210      C1211   1.395       .  A
C1210      H1215   1.084       .  S
C1211      C1212   1.421       .  A
C1211      O1216   1.373       .  S
C1212      C1213   1.420       .  A
C1213      C1214   1.404       .  A
C1213      H1217   1.079       .  S
C1214      O1218   1.371   1_554  S
O1216      H1220   0.992       .  S
O1218      H1219   0.991       .  S
C1221      C1222   1.409       .  A
C1221      C1226   1.430       .  A
C1222      C1223   1.399       .  A
C1222      H1227   1.079       .  S
C1223      C1224   1.418       .  A
C1223      O1228   1.373       .  S
C1224      C1225   1.397       .  A
C1225      C1226   1.408       .  A
C1225      H1229   1.083       .  S
C1226      O1230   1.371       .  S
O1228      H1232   0.991       .  S
O1230      H1231   0.991       .  S
C1233      C1234   1.422       .  A
C1233      C1238   1.421       .  A
C1234      C1235   1.404       .  A
C1234      H1239   1.079       .  S
C1235      C1236   1.399   1_554  A
C1235      O1240   1.371   1_564  S
C1236      C1237   1.396   1_556  A
C1237      C1238   1.396       .  A
C1237      H1241   1.084       .  S
C1238      O1242   1.374       .  S
O1240      H1244   0.992       .  S
O1242      H1243   0.991       .  S
C1245      C1246   1.405   1_554  A
C1245      C1250   1.431       .  A
C1246      C1247   1.392       .  A
C1246      H1251   1.079       .  S
C1247      C1248   1.422   1_556  A
C1247      O1252   1.373       .  S
C1248      C1249   1.400       .  A
C1249      C1250   1.413       .  A
C1249      H1253   1.083       .  S
C1250      O1254   1.372       .  S
O1252      H1256   0.991       .  S
O1254      H1255   0.992       .  S
C1257      C1258   1.422       .  A
C1257      C1262   1.425       .  A
C1258      C1259   1.404       .  A
C1258      H1263   1.083       .  S
C1259      C1260   1.399       .  A
C1259      O1264   1.371       .  S
C1260      C1261   1.402       .  A
C1261      C1262   1.404       .  A
C1261      H1265   1.085       .  S
C1262      O1266   1.373       .  S
O1264      H1268   0.992       .  S
O1266      H1267   0.991       .  S
C1269      C1270   1.403       .  A
C1269      C1274   1.397       .  A
C1270      C1271   1.407       .  A
C1270      H1275   1.084       .  S
C1271      C1272   1.424       .  A
C1271      O1276   1.372       .  S
C1272      C1273   1.422       .  A
C1273      C1274   1.402       .  A
C1273      H1277   1.083       .  S
C1274      O1278   1.371       .  S
O1276      H1280   0.991       .  S
O1278      H1279   0.992       .  S
C1281      C1282   1.399       .  A
C1281      C1286   1.405       .  A
C1282      C1283   1.414       .  A
C1282      H1287   1.084       .  S
C1283      C1284   1.430       .  A
C1283      O1288   1.371   1_655  S
C1284      C1285   1.417       .  A
C1285      C1286   1.395       .  A
C1285      H1289   1.084       .  S
C1286      O1290   1.373       .  S
O1288      H1292   0.993       .  S
O1290      H1291   0.992       .  S
C1293      C1294   1.404       .  A
C1293      C1298   1.419       .  A
C1294      C1295   1.417       .  A
C1294      H1299   1.083       .  S
C1295      C1296   1.429       .  A
C1295      O1300   1.373       .  S
C1296      C1297   1.404       .  A
C1297      C1298   1.387       .  A
C1297      H1301   1.080       .  S
C1298      O1302   1.374       .  S
O1300      H1304   0.993       .  S
O1302      H1303   0.991       .  S
C1305      C1306   1.404       .  A
C1305      C1310   1.410       .  A
C1306      C1307   1.405       .  A
C1306      H1311   1.083       .  S
C1307      C1308   1.426       .  A
C1307      O1312   1.373       .  S
C1308      C1309   1.421       .  A
C1309      C1310   1.407       .  A
C1309      H1313   1.078       .  S
C1310      O1314   1.372       .  S
O1312      H1316   0.994       .  S
O1314      H1315   0.992       .  S
C1317      C1318   1.416       .  A
C1317      C1322   1.421       .  A
C1318      C1319   1.406       .  A
C1318      H1323   1.078       .  S
C1319      C1320   1.408       .  A
C1319      O1324   1.371       .  S
C1320      C1321   1.403       .  A
C1321      C1322   1.398       .  A
C1321      H1325   1.084       .  S
C1322      O1326   1.373       .  S
O1324      H1328   0.992       .  S
O1326      H1327   0.992       .  S
C1329      C1330   1.427       .  A
C1329      C1334   1.418       .  A
C1330      C1331   1.394       .  A
C1330      H1335   1.077       .  S
C1331      C1332   1.392       .  A
C1331      O1336   1.372       .  S
C1332      C1333   1.408       .  A
C1333      C1334   1.405       .  A
C1333      H1337   1.084       .  S
C1334      O1338   1.372       .  S
O1336      H1340   0.992       .  S
O1338      H1339   0.992       .  S
C1341      C1342   1.427       .  A
C1341      C1346   1.419       .  A
C1342      C1343   1.397       .  A
C1342      H1347   1.077       .  S
C1343      C1344   1.394       .  A
C1343      O1348   1.372       .  S
C1344      C1345   1.410       .  A
C1345      C1346   1.411       .  A
C1345      H1349   1.084       .  S
C1346      O1350   1.372       .  S
O1348      H1352   0.991       .  S
O1350      H1351   0.993       .  S
C1353      C1354   1.395       .  A
C1353      C1358   1.410       .  A
C1354      C1355   1.402       .  A
C1354      H1359   1.084       .  S
C1355      C1356   1.432       .  A
C1355      O1360   1.375       .  S
C1356      C1357   1.412       .  A
C1357      C1358   1.407       .  A
C1357      H1361   1.082       .  S
C1358      O1362   1.371       .  S
O1360      H1364   0.992       .  S
O1362      H1363   0.991       .  S
C1365      C1366   1.414       .  A
C1365      C1370   1.428       .  A
C1366      C1367   1.401       .  A
C1366      H1371   1.084       .  S
C1367      C1368   1.413       .  A
C1367      O1372   1.373       .  S
C1368      C1369   1.401       .  A
C1369      C1370   1.408       .  A
C1369      H1373   1.083       .  S
C1370      O1374   1.370       .  S
O1372      H1376   0.991       .  S
O1374      H1375   0.991       .  S
C1377      C1378   1.398       .  A
C1377      C1382   1.415       .  A
C1378      C1379   1.402       .  A
C1378      H1383   1.084       .  S
C1379      C1380   1.433       .  A
C1379      O1384   1.374       .  S
C1380      C1381   1.416       .  A
C1381      C1382   1.413       .  A
C1381      H1385   1.083       .  S
C1382      O1386   1.371       .  S
O1384      H1388   0.993       .  S
O1386      H1387   0.992       .  S
C1389      C1390   1.405       .  A
C1389      C1394   1.398       .  A
C1390      C1391   1.406       .  A
C1390      H1395   1.084       .  S
C1391      C1392   1.419       .  A
C1391      O1396   1.369       .  S
C1392      C1393   1.425       .  A
C1393      C1394   1.398       .  A
C1393      H1397   1.080       .  S
C1394      O1398   1.372       .  S
O1396      H1400   0.993       .  S
O1398      H1399   0.992       .  S
C1401      C1402   1.403       .  A
C1401      C1406   1.407       .  A
C1402      C1403   1.398       .  A
C1402      H1407   1.084       .  S
C1403      C1404   1.423       .  A
C1403      O1408   1.374       .  S
C1404      C1405   1.420       .  A
C1405      C1406   1.407       .  A
C1405      H1409   1.079       .  S
C1406      O1410   1.371       .  S
O1408      H1412   0.989       .  S
O1410      H1411   0.991       .  S
C1413      C1414   1.394       .  A
C1413      C1418   1.412       .  A
C1414      C1415   1.409       .  A
C1414      H1419   1.083       .  S
C1415      C1416   1.432       .  A
C1415      O1420   1.370       .  S
C1416      C1417   1.405       .  A
C1417      C1418   1.396       .  A
C1417      H1421   1.081       .  S
C1418      O1422   1.369       .  S
O1420      H1424   0.995       .  S
O1422      H1423   0.991       .  S
C1425      C1426   1.398       .  A
C1425      C1430   1.413       .  A
C1426      C1427   1.411       .  A
C1426      H1431   1.083       .  S
C1427      C1428   1.429       .  A
C1427      O1432   1.372       .  S
C1428      C1429   1.407       .  A
C1429      C1430   1.400       .  A
C1429      H1433   1.081       .  S
C1430      O1434   1.376       .  S
O1432      H1436   0.994       .  S
O1434      H1435   0.992       .  S
C1437      C1438   1.423   1_545  A
C1437      C1442   1.419       .  A
C1438      C1439   1.401       .  A
C1438      H1443   1.083       .  S
C1439      C1440   1.397       .  A
C1439      O1444   1.371       .  S
C1440      C1441   1.405   1_565  A
C1441      C1442   1.411       .  A
C1441      H1445   1.084       .  S
C1442      O1446   1.374       .  S
O1444      H1448   0.992       .  S
O1446      H1447   0.992       .  S
C1449      C1450   1.406       .  A
C1449      C1454   1.425   1_565  A
C1450      C1451   1.400       .  A
C1450      H1455   1.081       .  S
C1451      C1452   1.421   1_565  A
C1451      O1456   1.374       .  S
C1452      C1453   1.399       .  A
C1453      C1454   1.406       .  A
C1453      H1457   1.083       .  S
C1454      O1458   1.370       .  S
O1456      H1460   0.991       .  S
O1458      H1459   0.991       .  S
C1461      C1462   1.406       .  A
C1461      C1466   1.400       .  A
C1462      C1463   1.405       .  A
C1462      H1467   1.084       .  S
C1463      C1464   1.419       .  A
C1463      O1468   1.375       .  S
C1464      C1465   1.425       .  A
C1465      C1466   1.400       .  A
C1465      H1469   1.079       .  S
C1466      O1470   1.371       .  S
O1468      H1472   0.991       .  S
O1470      H1471   0.993       .  S
C1473      C1474   1.403       .  A
C1473      C1478   1.412       .  A
C1474      C1475   1.398       .  A
C1474      H1479   1.084       .  S
C1475      C1476   1.423       .  A
C1475      O1480   1.372       .  S
C1476      C1477   1.416       .  A
C1477      C1478   1.411       .  A
C1477      H1481   1.078       .  S
C1478      O1482   1.371       .  S
O1480      H1484   0.992       .  S
O1482      H1483   0.992       .  S
C1485      C1486   1.406       .  A
C1485      C1490   1.410       .  A
C1486      C1487   1.407       .  A
C1486      H1491   1.083       .  S
C1487      C1488   1.421       .  A
C1487      O1492   1.369       .  S
C1488      C1489   1.417       .  A
C1489      C1490   1.400       .  A
C1489      H1493   1.084       .  S
C1490      O1494   1.372       .  S
O1492      H1496   0.992       .  S
O1494      H1495   0.991       .  S
C1497      C1498   1.404       .  A
C1497      C1502   1.402       .  A
C1498      C1499   1.397       .  A
C1498      H1503   1.084       .  S
C1499      C1500   1.419       .  A
C1499      O1504   1.374       .  S
C1500      C1501   1.422       .  A
C1501      C1502   1.403       .  A
C1501      H1505   1.079       .  S
C1502      O1506   1.371       .  S
O1504      H1508   0.990       .  S
O1506      H1507   0.992       .  S
C1509      C1510   1.403       .  A
C1509      C1514   1.398       .  A
C1510      C1511   1.397       .  A
C1510      H1515   1.084       .  S
C1511      C1512   1.419       .  A
C1511      O1516   1.373       .  S
C1512      C1513   1.426       .  A
C1513      C1514   1.401       .  A
C1513      H1517   1.080       .  S
C1514      O1518   1.372       .  S
O1516      H1520   0.993       .  S
O1518      H1519   0.992       .  S
C1521      C1522   1.424       .  A
C1521      C1526   1.424       .  A
C1522      C1523   1.411       .  A
C1522      H1527   1.079   1_556  S
C1523      C1524   1.402       .  A
C1523      O1528   1.371       .  S
C1524      C1525   1.401       .  A
C1525      C1526   1.399       .  A
C1525      H1529   1.085       .  S
C1526      O1530   1.373       .  S
O1528      H1532   0.990       .  S
O1530      H1531   0.992       .  S
C1533      C1534   1.398       .  A
C1533      C1538   1.422       .  A
C1534      C1535   1.409       .  A
C1534      H1539   1.083       .  S
C1535      C1536   1.429       .  A
C1535      O1540   1.371       .  S
C1536      C1537   1.406       .  A
C1537      C1538   1.394       .  A
C1537      H1541   1.080       .  S
C1538      O1542   1.373       .  S
O1540      H1544   0.993       .  S
O1542      H1543   0.992       .  S
