geometry optimzed in LAMMPS
_audit_creation_date              2020-11-30 
_audit_creation_method            'lammps2cif' 
_symmetry_space_group_name_H-M    'P1' 
_symmetry_Int_Tables_number       1 
_symmetry_cell_setting            triclinic 
loop_ 
_symmetry_equiv_pos_as_xyz 
  x,y,z 
_cell_length_a                    44.24981457 
_cell_length_b                    44.91788928968374 
_cell_length_c                    45.22925681820037 
_cell_angle_alpha                 90.44482366238523 
_cell_angle_beta                  92.19752080291843 
_cell_angle_gamma                 88.64287258966958 
loop_ 
_atom_site_label 
_atom_site_type_symbol 
_atom_site_fract_x 
_atom_site_fract_y 
_atom_site_fract_z 
_atom_site_charge 
O1          O  0.54561443  0.60264693  0.65213861    -0.80700
O2          O  0.62203044  0.68986155  0.59909828    -0.65400
O3          O  0.57843270  0.61949783  0.60717546    -1.12000
C4          C  0.66670669  0.59086528  0.66287474     1.06200
O5          O  0.65786856  0.66067446  0.58067294    -0.78600
O6          O  0.66278581  0.60025861  0.58692580    -0.66200
Ni7        Ni  0.53709530  0.62240084  0.61586750     1.34900
C8          C  0.64646716  0.57743283  0.58817260     0.84900
O9          O  0.56727725  0.67395390  0.57866817    -0.79100
O10         O  0.52816346  0.64312921  0.57960061    -0.89400
C11         C  0.64424896  0.68593690  0.58261547     0.84500
O12         O  0.53563971  0.65847787  0.63845361    -0.67600
O13         O  0.67996147  0.60778226  0.64502155    -0.86900
C14         C  0.55678289  0.67341980  0.65045489     0.85300
C15         C  0.54185879  0.66475145  0.56829296     1.06900
H16         H  0.63097297  0.64722259  0.64653572     0.38700
O17         O  0.62884405  0.63651280  0.62799127    -1.09500
O18         O  0.62419980  0.57596809  0.60511663    -0.66200
Ni19       Ni  0.60706916  0.60170297  0.63521187     1.26300
O20         O  0.58296269  0.67377294  0.63969358    -0.66400
O21         O  0.63806799  0.58654409  0.66230864    -0.78700
C22         C  0.55464702  0.57579159  0.65244542     0.84700
O23         O  0.58102594  0.56919745  0.64368370    -0.65900
Ni24       Ni  0.66781799  0.63379607  0.61298088     1.27400
Ni25       Ni  0.59851945  0.65575128  0.60379654     1.26100
H26         H  0.57978000  0.60898104  0.58853711     0.39300
O27         O  0.86050010  0.53604066  0.42438964    -0.80700
O28         O  0.90229187  0.61798307  0.32344454    -0.65400
O29         O  0.89478024  0.58047151  0.39853720    -1.12000
C30         C  0.82772975  0.66004121  0.41531522     1.06200
O31         O  0.90842876  0.66221683  0.34448055    -0.78600
O32         O  0.90978543  0.65808700  0.40508472    -0.66200
Ni33       Ni  0.89516775  0.53780126  0.40082413     1.34900
C34         C  0.90618108  0.64661811  0.43029689     0.84900
O35         O  0.93152142  0.57238271  0.34826641    -0.79100
O36         O  0.93108756  0.53374572  0.37867978    -0.89400
C37         C  0.90941993  0.64508257  0.32192277     0.84500
O38         O  0.86845539  0.53188809  0.36721699    -0.67600
O39         O  0.84920680  0.67374676  0.40379259    -0.86900
C40         C  0.85736775  0.54904932  0.34716532     0.85300
C41         C  0.94295062  0.54816442  0.35827489     1.06900
H42         H  0.85061506  0.62353660  0.35920900     0.38700
O43         O  0.86808894  0.62478341  0.37261516    -1.09500
O44         O  0.88528332  0.62833705  0.43499921    -0.66200
Ni45       Ni  0.85971499  0.60472549  0.40834647     1.26300
O46         O  0.86820771  0.57436549  0.34166730    -0.66400
O47         O  0.82648272  0.63161321  0.41628164    -0.78700
C48         C  0.84654646  0.55308659  0.44190024     0.84700
O49         O  0.84921967  0.58135384  0.44207667    -0.65900
Ni50       Ni  0.87899334  0.66531135  0.37500637     1.27400
Ni51       Ni  0.89922924  0.59826377  0.36041080     1.26100
H52         H  0.91183904  0.58659409  0.41088851     0.39300
O53         O  0.85161535  0.43296856  0.11129978    -0.80700
O54         O  0.89436402  0.34125835  0.19738867    -0.65400
O55         O  0.89203272  0.38879202  0.12842433    -1.12000
C56         C  0.83495518  0.31166854  0.08897311     1.06200
O57         O  0.91089882  0.30334656  0.17051563    -0.78600
O58         O  0.91495564  0.31454019  0.11120257    -0.66200
Ni59       Ni  0.88923473  0.43054772  0.13283475     1.34900
C60         C  0.91159115  0.32911754  0.08727376     0.84900
O61         O  0.92058240  0.39207350  0.18536550    -0.79100
O62         O  0.92713943  0.43012739  0.15492957    -0.89400
C63         C  0.90676167  0.31564092  0.19563596     0.84500
O64         O  0.86602260  0.43291577  0.16782101    -0.67600
O65         O  0.85608976  0.29686398  0.10267517    -0.86900
C66         C  0.85012383  0.41310688  0.17917803     0.85300
C67         C  0.93535180  0.41445088  0.17731153     1.06900
H68         H  0.84853980  0.33891675  0.15168412     0.38700
O69         O  0.86738845  0.34080539  0.14183532    -1.09500
O70         O  0.89017137  0.34819815  0.08277489    -0.66200
Ni71       Ni  0.86073962  0.36638910  0.10856283     1.26300
O72         O  0.85776855  0.38569683  0.17860517    -0.66400
O73         O  0.83144919  0.34012618  0.09056131    -0.78700
C74         C  0.84448026  0.42299946  0.08577660     0.84700
O75         O  0.85188066  0.39630401  0.07825875    -0.65900
Ni76       Ni  0.88352565  0.30221411  0.13600359     1.27400
Ni77       Ni  0.89343919  0.36625262  0.16374475     1.26100
H78         H  0.91079555  0.38474638  0.11876493     0.39300
C79         C  0.73659457  0.55110386  0.00860231     0.03300
C80         C  0.71276773  0.53577058  0.99378366    -0.12800
C81         C  0.71348398  0.50435420  0.99197725     0.00800
C82         C  0.73803343  0.48842067  0.00490722    -0.11300
C83         C  0.76181658  0.50275169  0.01973739     0.03300
C84         C  0.76100210  0.53416154  0.02145233    -0.10800
H85         H  0.69388997  0.54816347  0.98359379     0.08900
H86         H  0.73839932  0.46430607  0.00364940     0.06400
H87         H  0.77922478  0.54542758  0.03313911     0.06300
C88         C  0.08271530  0.47922416  0.26651520     0.03300
C89         C  0.06521710  0.46168706  0.24642702    -0.12800
C90         C  0.03374743  0.45979621  0.24928545     0.00800
C91         C  0.01993044  0.47547922  0.27200228    -0.11300
C92         C  0.03655571  0.49267239  0.29217745     0.03300
C93         C  0.06793086  0.49490515  0.28933933    -0.10800
H94         H  0.07604033  0.44899524  0.22917230     0.08900
H95         H  0.99556821  0.47468686  0.27379602     0.06400
H96         H  0.08071685  0.50865659  0.30484886     0.06300
O97         O  0.54735053  0.40346583  0.86366727    -0.80700
O98         O  0.63472332  0.30461539  0.90482118    -0.65400
O99         O  0.59221777  0.37895835  0.90133139    -1.12000
C100        C  0.67484689  0.40786385  0.85047571     1.06200
O101        O  0.67358916  0.32921013  0.92447173    -0.78600
O102        O  0.66602364  0.39024433  0.92830299    -0.66200
Ni103      Ni  0.54935517  0.38016491  0.89864090     1.34900
C104        C  0.65364452  0.41557494  0.92291148     0.84900
O105        O  0.58337291  0.32274105  0.92714261    -0.79100
O106        O  0.54769620  0.35756033  0.93430784    -0.89400
C107        C  0.66048565  0.30481952  0.91809510     0.84500
O108        O  0.54457534  0.34581032  0.87347323    -0.67600
O109        O  0.68806384  0.39451863  0.87244658    -0.86900
C110        C  0.56367994  0.33103481  0.85850809     0.85300
C111        C  0.56114415  0.33313393  0.94108912     1.06900
H112        H  0.64303967  0.34747943  0.86165278     0.38700
O113        O  0.64065297  0.35872082  0.87973073    -1.09500
O114        O  0.63653347  0.42010807  0.90012061    -0.66200
Ni115      Ni  0.61757343  0.39371472  0.87138392     1.26300
O116        O  0.59134657  0.32766534  0.86708883    -0.66400
O117        O  0.64644640  0.40630263  0.84398750    -0.78700
C118        C  0.56342388  0.42369180  0.85348056     0.84700
O119        O  0.59131814  0.42661507  0.86049865    -0.65900
Ni120      Ni  0.67902075  0.36253322  0.89848225     1.27400
Ni121      Ni  0.61194423  0.34090450  0.90313768     1.26100
H122        H  0.59737193  0.38893677  0.91979363     0.39300
O123        O  0.43020108  0.10754301  0.84995977    -0.80700
O124        O  0.34757759  0.19610024  0.89975906    -0.65400
O125        O  0.39205980  0.12348363  0.89268196    -1.12000
C126        C  0.30901133  0.09263149  0.83556114     1.06200
O127        O  0.30794733  0.17035620  0.91213556    -0.78600
O128        O  0.31629278  0.11031868  0.91403634    -0.66200
Ni129      Ni  0.43413244  0.12445913  0.88839773     1.34900
C130        C  0.33119981  0.08608285  0.91077913     0.84900
O131        O  0.40053706  0.17610967  0.92519064    -0.79100
O132        O  0.43826212  0.14172949  0.92692515    -0.89400
C133        C  0.32135228  0.19502838  0.91005604     0.84500
O134        O  0.43741839  0.16223246  0.86991763    -0.67600
O135        O  0.29532275  0.10697241  0.85574703    -0.86900
C136        C  0.41720361  0.17634870  0.85476569     0.85300
C137        C  0.42376314  0.16363984  0.93823597     1.06900
H138        H  0.34067304  0.15434337  0.85125182     0.38700
O139        O  0.34275411  0.14276734  0.86918144    -1.09500
O140        O  0.34891462  0.08161041  0.88969510    -0.66200
Ni141      Ni  0.36647363  0.10760510  0.86162119     1.26300
O142        O  0.38982304  0.17741118  0.86237442    -0.66400
O143        O  0.33769301  0.09302703  0.83245392    -0.78700
C144        C  0.42123527  0.08122094  0.84668287     0.84700
O145        O  0.39433711  0.07503415  0.85331500    -0.65900
Ni146      Ni  0.30381679  0.13822385  0.88387800     1.27400
Ni147      Ni  0.37126873  0.16033127  0.89638478     1.26100
H148        H  0.38912862  0.11251556  0.91058441     0.39300
C149        C  0.50550731  0.24124347  0.08066236     0.03300
C150        C  0.51902793  0.26245552  0.06286312    -0.12800
C151        C  0.51345413  0.26245449  0.03230262     0.00800
C152        C  0.49355436  0.24215056  0.01951145    -0.11300
C153        C  0.48011080  0.22083639  0.03649695     0.03300
C154        C  0.48621327  0.21997078  0.06717887    -0.10800
H155        H  0.53410960  0.27876888  0.07265303     0.08900
H156        H  0.48910804  0.24236844  0.99573155     0.06400
H157        H  0.47625499  0.20292543  0.08024011     0.06300
C158        C  0.49160798  0.24983067  0.71116668     0.03300
C159        C  0.51108332  0.26864119  0.72809132    -0.12800
C160        C  0.50874285  0.27105755  0.75897187     0.00800
C161        C  0.48677952  0.25527386  0.77298837    -0.11300
C162        C  0.46779961  0.23597968  0.75732576     0.03300
C163        C  0.47037869  0.23287473  0.72638424    -0.10800
H164        H  0.52767832  0.28169919  0.71732544     0.08900
H165        H  0.48523009  0.25717652  0.79683681     0.06400
H166        H  0.45633273  0.21706692  0.71444998     0.06300
C167        C  0.54628781  0.97706522  0.77218353     0.03300
C168        C  0.53327080  0.99287023  0.79579407    -0.12800
C169        C  0.50167462  0.99504534  0.79763168     0.00800
C170        C  0.48328507  0.98193485  0.77590145    -0.11300
C171        C  0.49543632  0.96643408  0.75225136     0.03300
C172        C  0.52709570  0.96362590  0.75057053    -0.10800
H173        H  0.54750648  0.00411623  0.81214910     0.08900
H174        H  0.45908215  0.98633108  0.77605705     0.06400
H175        H  0.53675957  0.95212755  0.73189117     0.06300
C176        C  0.94634987  0.99836696  0.25880508     0.03300
C177        C  0.96346143  0.01917192  0.24357220    -0.12800
C178        C  0.99541766  0.01812442  0.24619602     0.00800
C179        C  0.00976692  0.99574622  0.26336261    -0.11300
C180        C  0.99316844  0.97446154  0.27764120     0.03300
C181        C  0.96152527  0.97596363  0.27566766    -0.10800
H182        H  0.95202427  0.03627593  0.23028244     0.08900
H183        H  0.03428022  0.99398016  0.26455259     0.06400
H184        H  0.94872050  0.95917099  0.28644352     0.06300
C185        C  0.23818065  0.32571658  0.00201560     0.03300
C186        C  0.25602150  0.31191100  0.98036812    -0.12800
C187        C  0.26113844  0.28108655  0.98045511     0.00800
C188        C  0.24979723  0.26401520  0.00293385    -0.11300
C189        C  0.23106032  0.27654830  0.02409394     0.03300
C190        C  0.22581678  0.30779578  0.02406885    -0.10800
H191        H  0.26554531  0.32499692  0.96316332     0.08900
H192        H  0.25488351  0.24027869  0.00321313     0.06400
H193        H  0.21141063  0.31793465  0.04034609     0.06300
C194        C  0.26034932  0.95569637  0.00301898     0.03300
C195        C  0.28268371  0.97053251  0.98758646    -0.12800
C196        C  0.28430507  0.00181486  0.98857870     0.00800
C197        C  0.26316934  0.01821989  0.00462515    -0.11300
C198        C  0.23981702  0.00452304  0.01886293     0.03300
C199        C  0.23876300  0.97308876  0.01827338    -0.10800
H200        H  0.29845748  0.95789517  0.97441136     0.08900
H201        H  0.26471678  0.04218236  0.00560548     0.06400
H202        H  0.22121973  0.96211836  0.02981990     0.06300
C203        C  0.31551723  0.00162923  0.26440920     0.03300
C204        C  0.29792671  0.02585407  0.25252386    -0.12800
C205        C  0.26601061  0.02619042  0.25361894     0.00800
C206        C  0.25196983  0.00166675  0.26558419    -0.11300
C207        C  0.26871713  0.97682218  0.27600956     0.03300
C208        C  0.30046173  0.97714782  0.27600370    -0.10800
H209        H  0.30899317  0.04447888  0.24284152     0.08900
H210        H  0.22748385  0.00142691  0.26581593     0.06400
H211        H  0.31335877  0.95782555  0.28392617     0.06300
C212        C  0.00306965  0.24465395  0.95939240     0.03300
C213        C  0.98607976  0.26687153  0.97417674    -0.12800
C214        C  0.98663645  0.26854783  0.00529160     0.00800
C215        C  0.00452034  0.24777103  0.02151316    -0.11300
C216        C  0.02209939  0.22587873  0.00761511     0.03300
C217        C  0.02118974  0.22426530  0.97645979    -0.10800
H218        H  0.97287981  0.28317383  0.96140098     0.08900
H219        H  0.00496221  0.24871573  0.04547612     0.06400
H220        H  0.03403177  0.20680336  0.96565883     0.06300
C221        C  0.00028644  0.24830741  0.33783256     0.03300
C222        C  0.97597384  0.26095151  0.32065388    -0.12800
C223        C  0.97577635  0.25934965  0.28963347     0.00800
C224        C  0.00012873  0.24552318  0.27585064    -0.11300
C225        C  0.02483903  0.23350279  0.29220517     0.03300
C226        C  0.02462174  0.23421115  0.32334116    -0.10800
H227        H  0.95703168  0.27156209  0.33136675     0.08900
H228        H  0.00025767  0.24479403  0.25186843     0.06400
H229        H  0.04366405  0.22482347  0.33615720     0.06300
O230        O  0.16982602  0.07431438  0.12195333    -0.80700
O231        O  0.11899872  0.15892357  0.20879432    -0.65400
O232        O  0.12548784  0.11250020  0.13881374    -1.12000
C233        C  0.17645838  0.19529019  0.10439371     1.06200
O234        O  0.10064820  0.19639248  0.18139899    -0.78600
O235        O  0.09841193  0.18988083  0.12093008    -0.66200
Ni236      Ni  0.13282521  0.07110452  0.14158248     1.34900
C237        C  0.10105006  0.17413690  0.09762263     0.84900
O238        O  0.09773510  0.10538388  0.19366699    -0.79100
O239        O  0.09591608  0.06664442  0.16202681    -0.89400
C240        C  0.10402812  0.18330810  0.20634172     0.84500
O241        O  0.15673983  0.06953870  0.17764404    -0.67600
O242        O  0.15687930  0.20909393  0.11978054    -0.86900
C243        C  0.16976167  0.08997529  0.19241846     0.85300
C244        C  0.08633978  0.08091484  0.18446477     1.06900
H245        H  0.16559508  0.16434854  0.16579455     0.38700
O246        O  0.14654808  0.16204578  0.15493261    -1.09500
O247        O  0.12196988  0.15452014  0.09473760    -0.66200
Ni248      Ni  0.15380863  0.13800671  0.12067458     1.26300
O249        O  0.15980942  0.11686064  0.19241182    -0.66400
O250        O  0.18021053  0.16678211  0.10412189    -0.78700
C251        C  0.17151150  0.08316187  0.09564218     0.84700
O252        O  0.16261540  0.10970395  0.08906249    -0.65900
Ni253      Ni  0.12902469  0.20059389  0.15008409     1.27400
Ni254      Ni  0.12263215  0.13412110  0.17472277     1.26100
H255        H  0.10617273  0.11488497  0.12829974     0.39300
O256        O  0.29699337  0.90510789  0.63736219    -0.80700
O257        O  0.38559688  0.86603481  0.55187061    -0.65400
O258        O  0.34072865  0.86551497  0.62105779    -1.12000
C259        C  0.41606093  0.92653517  0.65911372     1.06200
O260        O  0.42795403  0.85457745  0.57735718    -0.78600
O261        O  0.42127166  0.84916401  0.63783616    -0.66200
Ni262      Ni  0.29804805  0.86822564  0.61677959     1.34900
C263        C  0.40680449  0.85038833  0.66166046     0.84900
O264        O  0.33679656  0.83651425  0.56599707    -0.79100
O265        O  0.29795507  0.83115774  0.59568765    -0.89400
C266        C  0.41234364  0.85556775  0.55295890     0.84500
O267        O  0.29295491  0.89123405  0.58126663    -0.67600
O268        O  0.43255273  0.90873317  0.64410815    -0.86900
C269        C  0.31228298  0.90674706  0.56874584     0.85300
C270        C  0.31418152  0.82210247  0.57458708     1.06900
H271        H  0.38644240  0.91202767  0.59609725     0.38700
O272        O  0.38701147  0.89318426  0.60630911    -1.09500
O273        O  0.38490663  0.86881469  0.66548572    -0.66200
Ni274      Ni  0.36254089  0.89703310  0.64007714     1.26300
O275        O  0.34009519  0.89928196  0.56928203    -0.66400
O276        O  0.38711187  0.92743176  0.65745007    -0.78700
C277        C  0.30628230  0.90826303  0.66392516     0.84700
O278        O  0.33385804  0.90195263  0.67121814    -0.65900
Ni279      Ni  0.42809312  0.88147889  0.61137677     1.27400
Ni280      Ni  0.36213789  0.86546818  0.58577535     1.26100
H281        H  0.34570093  0.84710092  0.63122805     0.39300
O282        O  0.10507505  0.83428511  0.43131323    -0.80700
O283        O  0.19129273  0.87725453  0.34444786    -0.65400
O284        O  0.12027736  0.87338574  0.38860919    -1.12000
C285        C  0.08681775  0.81059109  0.31109903     1.06200
O286        O  0.16311554  0.88793575  0.30433190    -0.78600
O287        O  0.10167901  0.88651911  0.30709872    -0.66200
Ni288      Ni  0.12388200  0.87202878  0.43025945     1.34900
C289        C  0.07861937  0.88703323  0.32304986     0.84900
O290        O  0.17497379  0.90458040  0.39399628    -0.79100
O291        O  0.14304272  0.91008301  0.43094085    -0.89400
C292        C  0.18817087  0.88929006  0.31920977     0.84500
O293        O  0.16175755  0.85063440  0.43452345    -0.67600
O294        O  0.10316572  0.82743765  0.29608195    -0.86900
C295        C  0.17450982  0.83415030  0.41553887     0.85300
C296        C  0.16480217  0.91927511  0.41596501     1.06900
H297        H  0.14896227  0.82846281  0.34286447     0.38700
O298        O  0.13734406  0.84695461  0.34243613    -1.09500
O299        O  0.07596680  0.87032580  0.34550813    -0.66200
Ni300      Ni  0.10272782  0.84146118  0.36576582     1.26300
O301        O  0.17505139  0.84155377  0.38850981    -0.66400
O302        O  0.08640088  0.81099179  0.33951811    -0.78700
C303        C  0.07898612  0.82783453  0.42096872     0.84700
O304        O  0.07128476  0.83421649  0.39402663    -0.65900
Ni305      Ni  0.13289656  0.85729736  0.30220332     1.27400
Ni306      Ni  0.15656830  0.87526440  0.36788652     1.26100
H307        H  0.10885194  0.89148712  0.38411760     0.39300
C308        C  0.99726103  0.74195001  0.55343196     0.03300
C309        C  0.98260965  0.71721653  0.54025297    -0.12800
C310        C  0.98162667  0.71296691  0.50939501     0.00800
C311        C  0.99585996  0.73327878  0.49146629    -0.11300
C312        C  0.01047177  0.75815654  0.50344708     0.03300
C313        C  0.01040737  0.76270087  0.53449881    -0.10800
H314        H  0.97220116  0.70092885  0.55387794     0.08900
H315        H  0.99530752  0.72970908  0.46774311     0.06400
H316        H  0.02000904  0.78275884  0.54377005     0.06300
C317        C  0.25006919  0.06117281  0.49045825     0.03300
C318        C  0.23084955  0.04703546  0.46892657    -0.12800
C319        C  0.23124207  0.01573756  0.46590196     0.00800
C320        C  0.25014480  0.99860334  0.48455642    -0.11300
C321        C  0.26833952  0.01138709  0.50661108     0.03300
C322        C  0.26836504  0.04274889  0.50982711    -0.10800
H323        H  0.21545538  0.06016493  0.45484496     0.08900
H324        H  0.24975841  0.97448299  0.48265969     0.06400
H325        H  0.28270220  0.05264835  0.52697673     0.06300
C326        C  0.24444083  0.68099975  0.48684837     0.03300
C327        C  0.26468518  0.69613315  0.50639507    -0.12800
C328        C  0.26956052  0.72662553  0.50305735     0.00800
C329        C  0.25403789  0.74226406  0.48059331    -0.11300
C330        C  0.23272059  0.72856637  0.46201253     0.03300
C331        C  0.22788793  0.69777626  0.46487436    -0.10800
H332        H  0.27636406  0.68437197  0.52443854     0.08900
H333        H  0.25678960  0.76616051  0.47906852     0.06400
H334        H  0.21156481  0.68717035  0.45009221     0.06300
C335        C  0.99139890  0.72228093  0.18569432     0.03300
C336        C  0.97030001  0.70407991  0.19923579    -0.12800
C337        C  0.97067246  0.70153160  0.23026948     0.00800
C338        C  0.99214473  0.71676178  0.24762121    -0.11300
C339        C  0.01342368  0.73459928  0.23488630     0.03300
C340        C  0.01297086  0.73722566  0.20383801    -0.10800
H341        H  0.95296268  0.69307363  0.18594744     0.08900
H342        H  0.99117949  0.71573219  0.27149413     0.06400
H343        H  0.02920896  0.75128789  0.19376210     0.06300
C344        C  0.17746840  0.99578481  0.75481935     0.03300
C345        C  0.19287889  0.97365584  0.73835611    -0.12800
C346        C  0.22462021  0.97216657  0.73856875     0.00800
C347        C  0.24097846  0.99348309  0.75426365    -0.11300
C348        C  0.22687555  0.01499756  0.77175731     0.03300
C349        C  0.19489891  0.01603609  0.77213714    -0.10800
H350        H  0.18025706  0.95766912  0.72515989     0.08900
H351        H  0.26531564  0.99354186  0.75230659     0.06400
H352        H  0.18372196  0.03184468  0.78643683     0.06300
C353        C  0.75626336  0.17576605  0.00284145     0.03300
C354        C  0.77403303  0.19569052  0.01999539    -0.12800
C355        C  0.77036078  0.22676125  0.01633880     0.00800
C356        C  0.74946621  0.23745999  0.99489821    -0.11300
C357        C  0.73236792  0.21814787  0.97716501     0.03300
C358        C  0.73532633  0.18735059  0.98132360    -0.10800
H359        H  0.79018087  0.18700810  0.03649766     0.08900
H360        H  0.74580719  0.26127140  0.99226837     0.06400
H361        H  0.72162834  0.17253043  0.96771117     0.06300
C362        C  0.49402754  0.76037482  0.79637569     0.03300
C363        C  0.51424435  0.74187713  0.78008496    -0.12800
C364        C  0.51338169  0.74216234  0.74874562     0.00800
C365        C  0.49234043  0.76061219  0.73376711    -0.11300
C366        C  0.47081068  0.77756963  0.74866108     0.03300
C367        C  0.47198605  0.77779800  0.77997603    -0.10800
H368        H  0.53070957  0.72750322  0.79156086     0.08900
H369        H  0.49216205  0.76096027  0.70977662     0.06400
H370        H  0.45504908  0.79073405  0.79137079     0.06300
C371        C  0.46705217  0.74650326  0.42305428     0.03300
C372        C  0.45618880  0.77325651  0.43585860    -0.12800
C373        C  0.45960432  0.77791960  0.46651078     0.00800
C374        C  0.47257296  0.75543185  0.48426812    -0.11300
C375        C  0.48365665  0.72910918  0.47196807     0.03300
C376        C  0.48120829  0.72456609  0.44130042    -0.10800
H377        H  0.44596686  0.79062083  0.42202288     0.08900
H378        H  0.47442277  0.75854163  0.50808163     0.06400
H379        H  0.49029229  0.70422258  0.43172127     0.06300
C380        C  0.74410439  0.79483300  0.49502111     0.03300
C381        C  0.71825018  0.78560158  0.50913251    -0.12800
C382        C  0.70909621  0.75607470  0.50684585     0.00800
C383        C  0.72593439  0.73568984  0.49022298    -0.11300
C384        C  0.75197425  0.74423731  0.47634750     0.03300
C385        C  0.76085503  0.77409611  0.47840830    -0.10800
H386        H  0.70530728  0.80140720  0.52208376     0.08900
H387        H  0.71933226  0.71265327  0.48886770     0.06400
H388        H  0.78119271  0.78090864  0.46798516     0.06300
C389        C  0.43568509  0.48212465  0.74035685     0.03300
C390        C  0.44841336  0.49556557  0.71580296    -0.12800
C391        C  0.47996666  0.49770022  0.71429637     0.00800
C392        C  0.49862133  0.48632308  0.73719643    -0.11300
C393        C  0.48670150  0.47228947  0.76129281     0.03300
C394        C  0.45512946  0.47043885  0.76305576    -0.10800
H395        H  0.43383495  0.50481070  0.69822995     0.08900
H396        H  0.52276445  0.48985253  0.73700374     0.06400
H397        H  0.44577206  0.46056130  0.78234892     0.06300
C398        C  0.79294679  0.50629679  0.76630963     0.03300
C399        C  0.77750995  0.48660878  0.78417461    -0.12800
C400        C  0.74588390  0.48565596  0.78250405     0.00800
C401        C  0.72956578  0.50558453  0.76432774    -0.11300
C402        C  0.74414362  0.52393545  0.74490301     0.03300
C403        C  0.77600369  0.52470306  0.74627243    -0.10800
H404        H  0.79008425  0.47162315  0.79901480     0.08900
H405        H  0.70508637  0.50616749  0.76476664     0.06400
H406        H  0.78751537  0.53855379  0.73100804     0.06300
C407        C  0.73543758  0.43602868  0.51526535     0.03300
C408        C  0.71197887  0.45329148  0.52836695    -0.12800
C409        C  0.71207926  0.48483136  0.52793315     0.00800
C410        C  0.73649228  0.49875521  0.51557216    -0.11300
C411        C  0.75900461  0.48283438  0.50101886     0.03300
C412        C  0.75885141  0.45133533  0.50148303    -0.10800
H413        H  0.69384487  0.44230926  0.53900134     0.08900
H414        H  0.73797998  0.52276532  0.51715842     0.06400
H415        H  0.77646089  0.43879826  0.49055374     0.06300
C416        C  0.70641234  0.49044789  0.25762728     0.03300
C417        C  0.72091988  0.46909584  0.23927007    -0.12800
C418        C  0.75261539  0.46493314  0.24112765     0.00800
C419        C  0.76982486  0.48239360  0.26053425    -0.11300
C420        C  0.75648313  0.50401892  0.27819140     0.03300
C421        C  0.72478266  0.50807402  0.27700953    -0.10800
H422        H  0.70771337  0.45549772  0.22397717     0.08900
H423        H  0.79428056  0.47945942  0.26153238     0.06400
H424        H  0.71470126  0.52522824  0.29064488     0.06300
O425        O  0.07786526  0.43023583  0.67360292    -0.80700
O426        O  0.16696271  0.34607657  0.60217068    -0.65400
O427        O  0.10115656  0.39560253  0.62793868    -1.12000
C428        C  0.08711431  0.31885059  0.69782912     1.06200
O429        O  0.14474281  0.30311244  0.61176095    -0.78600
O430        O  0.08862266  0.30137903  0.62887585    -0.66200
Ni431      Ni  0.10744519  0.43391657  0.64358086     1.34900
C432        C  0.07195939  0.32047478  0.61496661     0.84900
O433        O  0.14331778  0.40115647  0.58534536    -0.79100
O434        O  0.13564574  0.44190663  0.61370993    -0.89400
C435        C  0.16424560  0.31791702  0.59878499     0.84500
O436        O  0.13908829  0.42074395  0.67075408    -0.67600
O437        O  0.10995712  0.30519011  0.68763348    -0.86900
C438        C  0.16372930  0.40794625  0.66366024     0.85300
C439        C  0.14497980  0.42939704  0.59018285     1.06900
H440        H  0.13906020  0.35383034  0.66610818     0.38700
O441        O  0.12584144  0.34855877  0.64951517    -1.09500
O442        O  0.06895712  0.34735522  0.62358102    -0.66200
Ni443      Ni  0.08798674  0.36829120  0.65602437     1.26300
O444        O  0.16584016  0.39197662  0.64048985    -0.66400
O445        O  0.07446383  0.34107327  0.68484940    -0.78700
C446        C  0.05286346  0.41666689  0.67186882     0.84700
O447        O  0.05141076  0.39052641  0.66122215    -0.65900
Ni448      Ni  0.12689386  0.30626041  0.64927762     1.27400
Ni449      Ni  0.13532695  0.37275239  0.61597060     1.26100
H450        H  0.08668647  0.39731254  0.61150710     0.39300
O451        O  0.65878979  0.07899090  0.44975551    -0.80700
O452        O  0.59978031  0.17854737  0.36933821    -0.65400
O453        O  0.61332304  0.10893203  0.41709205    -1.12000
C454        C  0.67533973  0.07961278  0.33643353     1.06200
O455        O  0.59080898  0.14584815  0.33441497    -0.78600
O456        O  0.60416653  0.08982783  0.32393319    -0.66200
Ni457      Ni  0.62997857  0.11105260  0.45618575     1.34900
C458        C  0.59200590  0.07392403  0.34292643     0.84900
O459        O  0.58014393  0.16214773  0.42421869    -0.79100
O460        O  0.60134461  0.14202577  0.46602346    -0.89400
C461        C  0.59171518  0.17272119  0.34261506     0.84500
O462        O  0.66040462  0.14010014  0.44988100    -0.67600
O463        O  0.66445751  0.10246971  0.32268185    -0.86900
C464        C  0.65803190  0.16416798  0.43521372     0.85300
C465        C  0.58256025  0.15977344  0.45259972     1.06900
H466        H  0.65496325  0.13509284  0.37277913     0.38700
O467        O  0.63564165  0.12577114  0.36968315    -1.09500
O468        O  0.60172980  0.07291950  0.36978424    -0.66200
Ni469      Ni  0.63810860  0.08880565  0.38902516     1.26300
O470        O  0.63851335  0.16807261  0.41419751    -0.66400
O471        O  0.66434154  0.07020263  0.36038938    -0.78700
C472        C  0.65328528  0.05417631  0.43699381     0.84700
O473        O  0.64068201  0.05330944  0.41142688    -0.65900
Ni474      Ni  0.62759754  0.12474821  0.32849528     1.27400
Ni475      Ni  0.60699830  0.14488796  0.39541209     1.26100
H476        H  0.59417476  0.09912013  0.41793080     0.39300
C477        C  0.50048446  0.25482882  0.58190237     0.03300
C478        C  0.48347756  0.27790118  0.56735661    -0.12800
C479        C  0.48453348  0.28131732  0.53652536     0.00800
C480        C  0.50125809  0.26084218  0.52015581    -0.11300
C481        C  0.51944404  0.23861577  0.53355796     0.03300
C482        C  0.51876347  0.23543065  0.56469353    -0.10800
H483        H  0.46974417  0.29328738  0.57997972     0.08900
H484        H  0.49943126  0.26203331  0.49624437     0.06400
H485        H  0.53196738  0.21771987  0.57540308     0.06300
O486        O  0.43011859  0.31815441  0.35958395    -0.80700
O487        O  0.35564251  0.40180041  0.44595227    -0.65400
O488        O  0.38371874  0.35566552  0.38149296    -1.12000
C489        C  0.44525625  0.43453316  0.35903586     1.06200
O490        O  0.37306709  0.44692909  0.43569322    -0.78600
O491        O  0.36374062  0.43838162  0.37766971    -0.66200
Ni492      Ni  0.39797089  0.31574098  0.38733349     1.34900
C493        C  0.36252360  0.42273262  0.35418016     0.84900
O494        O  0.33905466  0.35002614  0.42158440    -0.79100
O495        O  0.36604655  0.30783292  0.41351093    -0.89400
C496        C  0.35640919  0.42984815  0.44972226     0.84500
O497        O  0.42508081  0.32574036  0.41992621    -0.67600
O498        O  0.42376414  0.45016402  0.36926975    -0.86900
C499        C  0.41763570  0.33883077  0.44372713     0.85300
C500        C  0.34284033  0.32170052  0.42290561     1.06900
H501        H  0.42105730  0.39936194  0.42164225     0.38700
O502        O  0.40476400  0.40269291  0.40712751    -1.09500
O503        O  0.38389158  0.40448085  0.34741142    -0.66200
Ni504      Ni  0.41410007  0.38212996  0.37159971     1.26300
O505        O  0.39522081  0.35697091  0.44480675    -0.66400
O506        O  0.44664276  0.40682442  0.36276306    -0.78700
C507        C  0.43202689  0.33470805  0.33700985     0.84700
O508        O  0.42187185  0.36107923  0.33673454    -0.65900
Ni509      Ni  0.39831297  0.44491593  0.40269483     1.27400
Ni510      Ni  0.37071074  0.37757336  0.41481515     1.26100
H511        H  0.36762546  0.35563186  0.36642968     0.39300
C512        C  0.57298843  0.49787853  0.25237518     0.03300
C513        C  0.55827167  0.48385194  0.27569528    -0.12800
C514        C  0.52657140  0.48289456  0.27590962     0.00800
C515        C  0.50942269  0.49432386  0.25196640    -0.11300
C516        C  0.52253625  0.50987538  0.22936897     0.03300
C517        C  0.55451364  0.51149773  0.22943955    -0.10800
H518        H  0.57129151  0.47382169  0.29389675     0.08900
H519        H  0.48508750  0.49190193  0.25150984     0.06400
H520        H  0.56465730  0.52412839  0.21231841     0.06300
C521        C  0.49026418  0.75791082  0.92732117     0.03300
C522        C  0.47375384  0.73479212  0.93990515    -0.12800
C523        C  0.47065204  0.73313143  0.97070996     0.00800
C524        C  0.48257265  0.75557490  0.98903295    -0.11300
C525        C  0.49976075  0.77832147  0.97793288     0.03300
C526        C  0.50349762  0.77952674  0.94682702    -0.10800
H527        H  0.46378419  0.71772152  0.92589572     0.08900
H528        H  0.48030911  0.75396757  0.01276491     0.06400
H529        H  0.51716784  0.79676405  0.93795065     0.06300
O530        O  0.43554443  0.64683031  0.07286401    -0.80700
O531        O  0.35367639  0.58134415  0.16350016    -0.65400
O532        O  0.39999234  0.60272266  0.09691138    -1.12000
C533        C  0.31945493  0.67498664  0.08107971     1.06200
O534        O  0.31039558  0.58522392  0.13721088    -0.78600
O535        O  0.30382628  0.60408747  0.08217844    -0.52600
Ni536      Ni  0.44001513  0.61649134  0.10284034     1.34900
C537        C  0.32233229  0.59222204  0.06454911     0.84900
O538        O  0.40820372  0.56194023  0.14346174    -0.79100
O539        O  0.44988014  0.58673670  0.13234072    -0.89400
C540        C  0.32565983  0.57564732  0.15964619     0.84500
O541        O  0.42910750  0.64534871  0.13218873    -0.67600
O542        O  0.30589022  0.66270217  0.10197711    -0.86900
C543        C  0.41495767  0.64083686  0.15560153     0.85300
C544        C  0.43690772  0.56571338  0.14531512     1.06900
H545        H  0.35731432  0.64227139  0.13136171     0.38700
O546        O  0.35261199  0.62530828  0.11893167    -1.09500
O547        O  0.34932964  0.60100570  0.06217943    -0.66200
Ni548      Ni  0.37132236  0.63233932  0.08253778     1.26300
O549        O  0.39854279  0.61852225  0.15901746    -0.66400
O550        O  0.34273344  0.66314758  0.06945383    -0.78700
C551        C  0.41940661  0.64911962  0.04898475     0.84700
O552        O  0.39279556  0.63900657  0.04718747    -0.65900
Ni553      Ni  0.30989121  0.62376738  0.11934511     1.27400
Ni554      Ni  0.37865539  0.59235152  0.13134881     1.26100
H555        H  0.40046996  0.58584654  0.08354120     0.39300
C556        C  0.23620771  0.55142272  0.49908709     0.03300
C557        C  0.21201418  0.53761889  0.51304937    -0.12800
C558        C  0.21211612  0.50632510  0.51673048     0.00800
C559        C  0.23677557  0.48941337  0.50737939    -0.11300
C560        C  0.26000012  0.50217794  0.49249783     0.03300
C561        C  0.25943643  0.53298787  0.48780954    -0.10800
H562        H  0.19362287  0.55106754  0.52149494     0.08900
H563        H  0.23833936  0.46586264  0.51245150     0.06400
H564        H  0.27723259  0.54244259  0.47535597     0.06300
O565        O  0.65508252  0.88868989  0.20194105    -0.80700
O566        O  0.56077806  0.84376644  0.10012887    -0.65400
O567        O  0.62594204  0.85076743  0.15999995    -1.12000
C568        C  0.66314262  0.91694360  0.08874886     1.06200
O569        O  0.59755975  0.83692592  0.06936327    -0.78600
O570        O  0.65523196  0.84956398  0.07116578    -0.66200
Ni571      Ni  0.62046922  0.86299421  0.19942432     1.34900
C572        C  0.66677544  0.83322585  0.09154506     0.84900
O573        O  0.57126074  0.82059897  0.15624801    -0.79100
O574        O  0.58633699  0.83771601  0.20150353    -0.89400
C575        C  0.56980134  0.83521262  0.07460707     0.84500
O576        O  0.59505032  0.89643072  0.18931743    -0.67600
O577        O  0.64095538  0.90922687  0.07173999    -0.86900
C578        C  0.57136478  0.89776044  0.17256441     0.85300
C579        C  0.56999825  0.82134444  0.18450007     1.06900
H580        H  0.60378872  0.89665116  0.11479539     0.38700
O581        O  0.61357210  0.87743597  0.11198160    -1.09500
O582        O  0.66585804  0.84072750  0.11865314    -0.66200
Ni583      Ni  0.64906949  0.87640604  0.13681980     1.26300
O584        O  0.56668287  0.87987651  0.15069252    -0.66400
O585        O  0.67093104  0.90296970  0.11247799    -0.78700
C586        C  0.68056471  0.88765356  0.18967256     0.84700
O587        O  0.68313956  0.87610991  0.16415169    -0.65900
Ni588      Ni  0.61882383  0.87324748  0.07103711     1.27400
Ni589      Ni  0.59161565  0.84845443  0.13253786     1.26100
H590        H  0.63558436  0.83125007  0.16099187     0.39300
C591        C  0.73442554  0.68195058  0.01684284     0.03300
C592        C  0.72030170  0.69896138  0.03930309    -0.12800
C593        C  0.72222911  0.73032775  0.03982426     0.00800
C594        C  0.73825070  0.74452171  0.01830271    -0.11300
C595        C  0.75141307  0.72858630  0.99537831     0.03300
C596        C  0.74939853  0.69734406  0.99468554    -0.10800
H597        H  0.70816640  0.68809722  0.05633552     0.08900
H598        H  0.73978667  0.76858984  0.01910415     0.06400
H599        H  0.75916746  0.68500613  0.97659029     0.06300
O600        O  0.82634542  0.08599870  0.57943071    -0.80700
O601        O  0.88554119  0.17734938  0.67199244    -0.65400
O602        O  0.87010831  0.11363894  0.61704198    -1.12000
C603        C  0.80769630  0.07488052  0.69052181     1.06200
O604        O  0.88144551  0.15059813  0.71325309    -0.78600
O605        O  0.88021905  0.09196685  0.70786752    -0.66200
Ni606      Ni  0.85235274  0.12027594  0.57887163     1.34900
C607        C  0.89238824  0.07679576  0.68741858     0.84900
O608        O  0.90436836  0.16380963  0.61614749    -0.79100
O609        O  0.87779835  0.15374355  0.57371185    -0.89400
C610        C  0.89106491  0.17284022  0.69961806     0.84500
O611        O  0.82023877  0.14558814  0.59232271    -0.67600
O612        O  0.81638241  0.09560709  0.70794172    -0.86900
C613        C  0.82332255  0.16968366  0.60695036     0.85300
C614        C  0.89903655  0.16690295  0.58813713     1.06900
H615        H  0.82703868  0.13790772  0.66208536     0.38700
O616        O  0.84621644  0.12764103  0.66581182    -1.09500
O617        O  0.88131173  0.07525035  0.66110821    -0.66200
Ni618      Ni  0.84547680  0.09218211  0.64193544     1.26300
O619        O  0.84532900  0.17350655  0.62555996    -0.66400
O620        O  0.81941771  0.07022849  0.66579398    -0.78700
C621        C  0.83104979  0.06088989  0.59195376     0.84700
O622        O  0.84566594  0.05874756  0.61633818    -0.65900
Ni623      Ni  0.84953701  0.12290434  0.70788993     1.27400
Ni624      Ni  0.87638027  0.14672154  0.64282387     1.26100
H625        H  0.88919163  0.10313160  0.61475014     0.39300
C626        C  0.67642622  0.97297505  0.75582247     0.03300
C627        C  0.69006183  0.99432024  0.73796497    -0.12800
C628        C  0.72154402  0.99332588  0.73423939     0.00800
C629        C  0.73914119  0.97089019  0.74805240    -0.11300
C630        C  0.72642248  0.95059337  0.76678924     0.03300
C631        C  0.69516715  0.95165694  0.77084713    -0.10800
H632        H  0.67636696  0.01154181  0.72699112     0.08900
H633        H  0.76352467  0.97069135  0.74613151     0.06400
H634        H  0.68574173  0.93671561  0.78656556     0.06300
O635        O  0.89664777  0.79635638  0.84123386    -0.80700
O636        O  0.83394333  0.88546156  0.93066344    -0.65400
O637        O  0.85099754  0.83175123  0.86663945    -1.12000
C638        C  0.91463883  0.91023021  0.83855445     1.06200
O639        O  0.82933093  0.92133924  0.89783846    -0.78600
O640        O  0.84552657  0.92380361  0.84250649    -0.66200
Ni641      Ni  0.86861944  0.79367820  0.87323112     1.34900
C642        C  0.83066693  0.90337229  0.82958419     0.84900
O643        O  0.81460983  0.82910749  0.91488455    -0.79100
O644        O  0.84085356  0.78689006  0.90409403    -0.89400
C645        C  0.82653587  0.91229152  0.92396872     0.84500
O646        O  0.89902156  0.80639979  0.90172563    -0.67600
O647        O  0.90527006  0.92498645  0.86076145    -0.86900
C648        C  0.89439031  0.82139155  0.92515990     0.85300
C649        C  0.81945617  0.80083350  0.91703219     1.06900
H650        H  0.89195273  0.87783700  0.89439937     0.38700
O651        O  0.87312168  0.88085878  0.88318477    -1.09500
O652        O  0.83965201  0.87633882  0.83012360    -0.66200
Ni653      Ni  0.87613210  0.85870863  0.84766573     1.26300
O654        O  0.87254202  0.83992608  0.92736335    -0.66400
O655        O  0.90207915  0.88645080  0.82915358    -0.78700
C656        C  0.89342146  0.80930148  0.81614130     0.84700
O657        O  0.87904144  0.83393590  0.81373173    -0.65900
Ni658      Ni  0.86739496  0.92248801  0.87964562     1.27400
Ni659      Ni  0.84285109  0.85675407  0.89979694     1.26100
H660        H  0.83239227  0.82913663  0.85511775     0.39300
O661        O  0.18961589  0.67206496  0.89660099    -0.80700
O662        O  0.09529383  0.58408652  0.83556040    -0.65400
O663        O  0.15095706  0.64751220  0.85196814    -1.12000
C664        C  0.07051801  0.68157364  0.91230163     1.06200
O665        O  0.06199452  0.61976836  0.82696507    -0.78600
O666        O  0.05940735  0.67644329  0.84035987    -0.66200
Ni667      Ni  0.19070977  0.63993754  0.86766667     1.34900
C668        C  0.08146134  0.68995933  0.83005417     0.84900
O669        O  0.15220222  0.59573018  0.81703216    -0.79100
O670        O  0.19670463  0.60841138  0.83920342    -0.89400
C671        C  0.06841947  0.59229107  0.82768324     0.84500
O672        O  0.17955618  0.61215508  0.89711238    -0.67600
O673        O  0.05399265  0.66214338  0.89941539    -0.86900
C674        C  0.16189699  0.59027016  0.89455650     0.85300
C675        C  0.18110488  0.59378156  0.81995787     1.06900
H676        H  0.10165453  0.62387945  0.89043340     0.38700
O677        O  0.10019201  0.63475144  0.87205957    -1.09500
O678        O  0.10786500  0.68882236  0.84208386    -0.66200
Ni679      Ni  0.12415137  0.66887707  0.87718065     1.26300
O680        O  0.14138831  0.58834126  0.87425227    -0.66400
O681        O  0.09630087  0.68896055  0.90313190    -0.78700
C682        C  0.17630109  0.69759961  0.89585918     0.84700
O683        O  0.15060740  0.70139684  0.88287366    -0.65900
Ni684      Ni  0.05839763  0.64085523  0.86307003     1.27400
Ni685      Ni  0.12493088  0.61458600  0.84387441     1.26100
H686        H  0.15293423  0.65826910  0.83375145     0.39300
C687        C  0.00058553  0.75444689  0.68327557     0.03300
C688        C  0.02699592  0.74596237  0.70025392    -0.12800
C689        C  0.02836228  0.74990396  0.73125476     0.00800
C690        C  0.00328218  0.76207918  0.74506968    -0.11300
C691        C  0.97607496  0.76807801  0.72940395     0.03300
C692        C  0.97502996  0.76542294  0.69834663    -0.10800
H693        H  0.04609533  0.73565008  0.68953954     0.08900
H694        H  0.00414375  0.76466651  0.76894436     0.06400
H695        H  0.95428464  0.77141539  0.68614451     0.06300
C696        C  0.92425287  0.50004576  0.76561364     0.03300
C697        C  0.94342949  0.51691270  0.78459255    -0.12800
C698        C  0.97505975  0.51548255  0.78167013     0.00800
C699        C  0.98705538  0.49733950  0.75955468    -0.11300
C700        C  0.96843559  0.48058143  0.74062204     0.03300
C701        C  0.93709289  0.48180394  0.74365390    -0.10800
H702        H  0.93377371  0.53086223  0.80161559     0.08900
H703        H  0.01125141  0.49670296  0.75646602     0.06400
H704        H  0.92273974  0.46922927  0.72843044     0.06300
C705        C  0.30470149  0.48255841  0.74855818     0.03300
C706        C  0.28807458  0.50515900  0.76324357    -0.12800
C707        C  0.25614691  0.50595651  0.76139509     0.00800
C708        C  0.24136043  0.48366425  0.74520835    -0.11300
C709        C  0.25725780  0.46023557  0.73202100     0.03300
C710        C  0.28893928  0.45981929  0.73336895    -0.10800
H711        H  0.30000493  0.52176880  0.77625848     0.08900
H712        H  0.21692620  0.48470039  0.74229178     0.06400
H713        H  0.30121870  0.44222544  0.72211518     0.06300
C714        C  0.75406444  0.92096649  0.50823926     0.03300
C715        C  0.72989536  0.93517803  0.49234654    -0.12800
C716        C  0.72447169  0.96576944  0.49569734     0.00800
C717        C  0.74364822  0.98217685  0.51451282    -0.11300
C718        C  0.76745224  0.96850820  0.53085325     0.03300
C719        C  0.77287197  0.93776027  0.52756520    -0.10800
H720        H  0.71479366  0.92227823  0.47814582     0.08900
H721        H  0.74004544  0.00607832  0.51643169     0.06400
H722        H  0.79129780  0.92696310  0.54012432     0.06300
C723        C  0.99285078  0.25357200  0.46627125     0.03300
C724        C  0.97328141  0.23456643  0.48103292    -0.12800
C725        C  0.97104639  0.23643130  0.51201426     0.00800
C726        C  0.98696085  0.25804761  0.52775030    -0.11300
C727        C  0.00675093  0.27646176  0.51387140     0.03300
C728        C  0.00996578  0.27425357  0.48316657    -0.10800
H729        H  0.96012815  0.21835085  0.46864038     0.08900
H730        H  0.98503698  0.25961939  0.55157668     0.06400
H731        H  0.02603965  0.28812951  0.47261222     0.06300
C732        C  0.99597044  0.24607630  0.82988361     0.03300
C733        C  0.01777853  0.26321148  0.81622391    -0.12800
C734        C  0.01729432  0.26615267  0.78544461     0.00800
C735        C  0.99476375  0.25268284  0.76802347    -0.11300
C736        C  0.97307612  0.23498656  0.78050774     0.03300
C737        C  0.97377059  0.23169297  0.81166443    -0.10800
H738        H  0.03516302  0.27428114  0.82942046     0.08900
H739        H  0.99454895  0.25570108  0.74424494     0.06400
H740        H  0.95784242  0.21722315  0.82155225     0.06300
C741        C  0.46269063  0.74077295  0.29536950     0.03300
C742        C  0.44333405  0.72269112  0.27793346    -0.12800
C743        C  0.44386720  0.72376448  0.24687503     0.00800
C744        C  0.46301094  0.74354415  0.23363204    -0.11300
C745        C  0.48198128  0.76177846  0.25049400     0.03300
C746        C  0.48195946  0.76033034  0.28141834    -0.10800
H747        H  0.42884384  0.70716664  0.28845240     0.08900
H748        H  0.46486343  0.74323583  0.20978781     0.06400
H749        H  0.49704488  0.77426020  0.29456798     0.06300
C750        C  0.81470524  0.99278685  0.25727641     0.03300
C751        C  0.79932497  0.96905401  0.24282826    -0.12800
C752        C  0.76774043  0.96627751  0.24503606     0.00800
C753        C  0.75183968  0.98750924  0.26164258    -0.11300
C754        C  0.76652821  0.01068685  0.27645632     0.03300
C755        C  0.79780522  0.01359392  0.27397175    -0.10800
H756        H  0.81198477  0.95219116  0.23098144     0.08900
H757        H  0.72753796  0.98596900  0.26329245     0.06400
H758        H  0.80895244  0.03186484  0.28531995     0.06300
C759        C  0.25300392  0.82555849  0.99998590     0.03300
C760        C  0.23671256  0.81159954  0.97638385    -0.12800
C761        C  0.23517167  0.78040466  0.97482673     0.00800
C762        C  0.24904122  0.76321328  0.99731392    -0.11300
C763        C  0.26550432  0.77628353  0.02072301     0.03300
C764        C  0.26793603  0.80751129  0.02187209    -0.10800
H765        H  0.22608934  0.82485764  0.95880986     0.08900
H766        H  0.24760916  0.73913965  0.99619392     0.06400
H767        H  0.28086482  0.81768458  0.03991928     0.06300
C768        C  0.73709545  0.30432467  0.51903687     0.03300
C769        C  0.75085867  0.28903685  0.54367776    -0.12800
C770        C  0.75126238  0.25754751  0.54506342     0.00800
C771        C  0.73792015  0.24167139  0.52144020    -0.11300
C772        C  0.72428221  0.25566831  0.49675230     0.03300
C773        C  0.72334581  0.28716592  0.49584688    -0.10800
H774        H  0.76062577  0.30167176  0.56197486     0.08900
H775        H  0.73811000  0.21760230  0.52218358     0.06400
H776        H  0.71257499  0.29821769  0.47689261     0.06300
C777        C  0.21473698  0.48071660  0.25990882     0.03300
C778        C  0.23353151  0.46075412  0.27676157    -0.12800
C779        C  0.26523028  0.46127718  0.27516548     0.00800
C780        C  0.27810535  0.48095079  0.25575053    -0.11300
C781        C  0.26031533  0.50099508  0.23876973     0.03300
C782        C  0.22858389  0.50092837  0.24106181    -0.10800
H783        H  0.22372524  0.44472793  0.29108582     0.08900
H784        H  0.30250482  0.48116228  0.25441916     0.06400
H785        H  0.21473658  0.51707968  0.22874040     0.06300
C786        C  0.23177016  0.45509173  0.99281044     0.03300
C787        C  0.20958345  0.47106614  0.97548688    -0.12800
C788        C  0.21214149  0.50190234  0.97118679     0.00800
C789        C  0.23743112  0.51639953  0.98302146    -0.11300
C790        C  0.25953544  0.50139443  0.00026223     0.03300
C791        C  0.25658301  0.47073448  0.00538712    -0.10800
H792        H  0.19023898  0.45973092  0.96577919     0.08900
H793        H  0.23951370  0.54008467  0.97939342     0.06400
H794        H  0.27389297  0.45910280  0.01869093     0.06300
C795        C  0.44795116  0.99532956  0.26107064     0.03300
C796        C  0.46263691  0.97818974  0.23917543    -0.12800
C797        C  0.49454843  0.97555801  0.23918907     0.00800
C798        C  0.51147621  0.98935927  0.26215586    -0.11300
C799        C  0.49768731  0.00728987  0.28345455     0.03300
C800        C  0.46589346  0.01018616  0.28287672    -0.10800
H801        H  0.44926209  0.96683990  0.22222492     0.08900
H802        H  0.53589073  0.98672930  0.26323195     0.06400
H803        H  0.45515702  0.02415428  0.29925477     0.06300
C804        C  0.52719963  0.26528992  0.20509766     0.03300
C805        C  0.55073535  0.25240123  0.22289756    -0.12800
C806        C  0.55208322  0.25729082  0.25368554     0.00800
C807        C  0.53175720  0.27764823  0.26591164    -0.11300
C808        C  0.50819734  0.29034686  0.24862903     0.03300
C809        C  0.50586411  0.28440352  0.21828709    -0.10800
H810        H  0.56619702  0.23633513  0.21333386     0.08900
H811        H  0.53161699  0.28065465  0.28973534     0.06400
H812        H  0.48673855  0.29349488  0.20535928     0.06300
C813        C  0.24980718  0.19251714  0.50032760     0.03300
C814        C  0.26961374  0.20948410  0.48348679    -0.12800
C815        C  0.26886294  0.24094639  0.48503738     0.00800
C816        C  0.24739314  0.25527751  0.50213210    -0.11300
C817        C  0.22815633  0.23961007  0.51956556     0.03300
C818        C  0.22932082  0.20809853  0.51873682    -0.10800
H819        H  0.28601166  0.19828135  0.46984094     0.08900
H820        H  0.24627822  0.27941590  0.50260271     0.06400
H821        H  0.21387999  0.19590853  0.53182225     0.06300
C822        C  0.99091729  0.74588358  0.05879619     0.03300
C823        C  0.01207842  0.73068493  0.04108519    -0.12800
C824        C  0.01381606  0.73759991  0.01089436     0.00800
C825        C  0.99431129  0.75928695  0.99854537    -0.11300
C826        C  0.97290580  0.77425514  0.01529569     0.03300
C827        C  0.97085738  0.76725929  0.04539796    -0.10800
H828        H  0.02735895  0.71394714  0.05078421     0.08900
H829        H  0.99471794  0.76341331  0.97495857     0.06400
H830        H  0.95358341  0.77819131  0.05820582     0.06300
C831        C  0.76203021  0.04759509  0.02250789     0.03300
C832        C  0.74297086  0.03372125  0.04231764    -0.12800
C833        C  0.74268756  0.00261917  0.04416585     0.00800
C834        C  0.76244518  0.98525839  0.02766094    -0.11300
C835        C  0.78138583  0.99828246  0.00780943     0.03300
C836        C  0.78115694  0.02951452  0.00516542    -0.10800
H837        H  0.72763488  0.04684750  0.05551440     0.08900
H838        H  0.76102601  0.96118248  0.02834057     0.06400
H839        H  0.79486336  0.03955750  0.98877290     0.06300
C840        C  0.04501667  0.99432871  0.75264362     0.03300
C841        C  0.03149005  0.97438885  0.77191607    -0.12800
C842        C  0.00015004  0.97075686  0.77073783     0.00800
C843        C  0.98202162  0.98764222  0.75109966    -0.11300
C844        C  0.99440857  0.00844432  0.73254196     0.03300
C845        C  0.02607527  0.01209074  0.73349331    -0.10800
H846        H  0.04530966  0.96144424  0.78763195     0.08900
H847        H  0.95767027  0.98526924  0.75109380     0.06400
H848        H  0.03586036  0.02795165  0.71892877     0.06300
C849        C  0.19082951  0.72267493  0.91209561    -0.05300
C850        C  0.22252258  0.72336540  0.91442272    -0.32700
C851        C  0.23715346  0.74409092  0.93282314     0.36600
C852        C  0.22019118  0.76450166  0.94966563    -0.05600
C853        C  0.18856365  0.76522357  0.94600939    -0.32600
C854        C  0.17384252  0.74445201  0.92740706     0.36500
H855        H  0.23605892  0.70709174  0.90265090     0.16800
O856        O  0.26812883  0.74297422  0.93571817    -0.60100
H857        H  0.17520656  0.78050236  0.95913489     0.16900
O858        O  0.14288250  0.74424614  0.92614919    -0.60200
H859        H  0.13744562  0.73044489  0.94201317     0.43800
H860        H  0.27501473  0.75864673  0.92237911     0.43800
C861        C  0.16691325  0.56496667  0.91488195    -0.05300
C862        C  0.16780822  0.56977713  0.94549127    -0.32700
C863        C  0.17880883  0.54738185  0.96473270     0.36600
C864        C  0.18999678  0.52009859  0.95327090    -0.05600
C865        C  0.18639587  0.51434616  0.92287968    -0.32600
C866        C  0.17463789  0.53650027  0.90372486     0.36500
H867        H  0.16128706  0.59135030  0.95439943     0.16800
O868        O  0.18014956  0.55276533  0.99468184    -0.60100
H869        H  0.19512545  0.49367245  0.91366892     0.16900
O870        O  0.17395614  0.53119114  0.87385353    -0.60200
H871        H  0.15528624  0.51983642  0.86977955     0.43800
H872        H  0.19565519  0.56815596  0.99798297     0.43800
C873        C  0.05919950  0.69550441  0.93962794    -0.05300
C874        C  0.04233374  0.67844191  0.95878070    -0.32700
C875        C  0.02970251  0.69124660  0.98394370     0.36600
C876        C  0.03392100  0.72155204  0.99040498    -0.05600
C877        C  0.05196282  0.73826025  0.97201772    -0.32600
C878        C  0.06419333  0.72559867  0.94662142     0.36500
H879        H  0.03820036  0.65522877  0.95376958     0.16800
O880        O  0.01094081  0.67471786  0.00041059    -0.60100
H881        H  0.05470216  0.76184996  0.97623248     0.16900
O882        O  0.07901749  0.74339913  0.92771970    -0.60200
H883        H  0.06316788  0.75108613  0.91347026     0.43800
H884        H  0.02426475  0.66560020  0.01614885     0.43800
C885        C  0.19815790  0.57238516  0.80168012    -0.05300
C886        C  0.22532756  0.58087027  0.78934590    -0.32700
C887        C  0.24447662  0.55974542  0.77599912     0.36600
C888        C  0.23721669  0.52933830  0.77604511    -0.05600
C889        C  0.20990635  0.52112774  0.78853872    -0.32600
C890        C  0.19009415  0.54239234  0.80027555     0.36500
H891        H  0.23171623  0.60401305  0.79007647     0.16800
O892        O  0.26935470  0.56921203  0.76185470    -0.60100
H893        H  0.20373313  0.49796190  0.78927269     0.16900
O894        O  0.16367553  0.53332725  0.81185110    -0.60200
H895        H  0.14859059  0.53383014  0.79506377     0.43800
H896        H  0.28398240  0.57523490  0.77782909     0.43800
C897        C  0.99634632  0.53427193  0.79940492    -0.05300
C898        C  0.02436755  0.52196264  0.80982628    -0.32700
C899        C  0.04796607  0.54019286  0.81998447     0.36600
C900        C  0.04383719  0.57133880  0.81970928    -0.05600
C901        C  0.01491897  0.58333642  0.81171205    -0.32600
C902        C  0.99145324  0.56521657  0.80154719     0.36500
H903        H  0.02842298  0.49809754  0.80884167     0.16800
O904        O  0.07517975  0.52734580  0.82891658    -0.60100
H905        H  0.01057397  0.60716910  0.81218168     0.16900
O906        O  0.96449737  0.57827473  0.79206085    -0.60200
H907        H  0.96722299  0.58349179  0.77107960     0.43800
H908        H  0.07303914  0.52251768  0.85008362     0.43800
C909        C  0.07585058  0.70593085  0.80181983    -0.05300
C910        C  0.07676791  0.73704530  0.80047232    -0.32700
C911        C  0.06503257  0.75212038  0.77526510     0.36600
C912        C  0.05220070  0.73597364  0.75105218    -0.05600
C913        C  0.05461197  0.70482869  0.75128525    -0.32600
C914        C  0.06614237  0.68983887  0.77643015     0.36500
H915        H  0.08445692  0.74970381  0.81969521     0.16800
O916        O  0.06325211  0.78264498  0.77575805    -0.60100
H917        H  0.04465690  0.69199652  0.73317057     0.16900
O918        O  0.06569684  0.65933486  0.77677397    -0.60200
H919        H  0.08617264  0.65267576  0.77097719     0.43800
H920        H  0.07909719  0.78912129  0.76245155     0.43800
C921        C  0.94066497  0.92180504  0.82260920    -0.05300
C922        C  0.95867672  0.94401940  0.83593140    -0.32700
C923        C  0.98078820  0.95808153  0.82007171     0.36600
C924        C  0.98492543  0.95032127  0.79035553    -0.05600
C925        C  0.96863525  0.92678440  0.77763574    -0.32600
C926        C  0.94693203  0.91229539  0.79357047     0.36500
H927        H  0.95485291  0.95138821  0.85836755     0.16800
O928        O  0.99618059  0.98127613  0.83290144    -0.60100
H929        H  0.97148882  0.92082455  0.75462233     0.16900
O930        O  0.93052691  0.89043346  0.77965886    -0.60200
H931        H  0.94291034  0.87192748  0.78261825     0.43800
H932        H  0.01556497  0.97231834  0.84065282     0.43800
C933        C  0.81473773  0.93392572  0.94584351    -0.05300
C934        C  0.82349891  0.93169063  0.97590864    -0.32700
C935        C  0.81455584  0.95370737  0.99615789     0.36600
C936        C  0.79648705  0.97834108  0.98648086    -0.05600
C937        C  0.78812371  0.98077308  0.95645661    -0.32600
C938        C  0.79682965  0.95883307  0.93627384     0.36500
H939        H  0.83763847  0.91310803  0.98364775     0.16800
O940        O  0.82301794  0.95065879  0.02549059    -0.60100
H941        H  0.77349971  0.99905849  0.94881256     0.16900
O942        O  0.78715752  0.96178481  0.90723403    -0.60200
H943        H  0.76862543  0.94983030  0.90515233     0.43800
H944        H  0.84024600  0.96416806  0.02880104     0.43800
C945        C  0.91296760  0.81481307  0.95199396    -0.05300
C946        C  0.94233037  0.82540670  0.95560724    -0.32700
C947        C  0.96121927  0.81539923  0.97927334     0.36600
C948        C  0.95088015  0.79399041  0.99904268    -0.05600
C949        C  0.92050592  0.78585617  0.99698802    -0.32600
C950        C  0.90148589  0.79642027  0.97379164     0.36500
H951        H  0.95097067  0.84045692  0.93951801     0.16800
O952        O  0.99027780  0.82538979  0.98223562    -0.60100
H953        H  0.91222276  0.76932473  0.01180708     0.16900
O954        O  0.87243103  0.78654438  0.97115015    -0.60200
H955        H  0.85982911  0.80236372  0.98034840     0.43800
H956        H  0.00105130  0.81693167  0.96515113     0.43800
C957        C  0.90919699  0.79649190  0.79026719    -0.05300
C958        C  0.92328337  0.76827654  0.79291574    -0.32700
C959        C  0.94282596  0.75759857  0.77151204     0.36600
C960        C  0.94913076  0.77539124  0.74698927    -0.05600
C961        C  0.93266223  0.80214236  0.74257589    -0.32600
C962        C  0.91235563  0.81249079  0.76372759     0.36500
H963        H  0.92015069  0.75476888  0.81225447     0.16800
O964        O  0.95639184  0.72994259  0.77502775    -0.60100
H965        H  0.93677256  0.81583042  0.72359600     0.16900
O966        O  0.89706898  0.83899866  0.75886209    -0.60200
H967        H  0.87711920  0.83347922  0.74998933     0.43800
H968        H  0.97009863  0.73149924  0.79282907     0.43800
C969        C  0.74754524  0.93319251  0.78615033    -0.05300
C970        C  0.76285467  0.90796858  0.77508667    -0.32700
C971        C  0.78945466  0.89693854  0.78952957     0.36600
C972        C  0.80139021  0.91189821  0.81474125    -0.05600
C973        C  0.78487867  0.93601539  0.82654491    -0.32600
C974        C  0.75809920  0.94644917  0.81265499     0.36500
H975        H  0.75512598  0.89790578  0.75438917     0.16800
O976        O  0.80430107  0.87261553  0.77799709    -0.60100
H977        H  0.79317953  0.94740655  0.84632364     0.16900
O978        O  0.74397449  0.97151327  0.82355124    -0.60200
H979        H  0.72723292  0.96407536  0.83521696     0.43800
H980        H  0.81891454  0.88083695  0.76430791     0.43800
C981        C  0.91087869  0.19266137  0.71758743    -0.05300
C982        C  0.90006992  0.20580098  0.74363282    -0.32700
C983        C  0.91985597  0.21929448  0.76458566     0.36600
C984        C  0.95118077  0.21939486  0.75994565    -0.05600
C985        C  0.96183209  0.20590858  0.73391450    -0.32600
C986        C  0.94204884  0.19285151  0.71290078     0.36500
H987        H  0.87619770  0.20505222  0.74801929     0.16800
O988        O  0.90823969  0.23305379  0.78898142    -0.60100
H989        H  0.98583876  0.20506622  0.72999411     0.16900
O990        O  0.95370189  0.17830989  0.68896078    -0.60200
H991        H  0.95360240  0.19342866  0.67309895     0.43800
H992        H  0.90358767  0.21669533  0.80256620     0.43800
C993        C  0.91759860  0.18623877  0.57013838    -0.05300
C994        C  0.94921116  0.18451042  0.57282853    -0.32700
C995        C  0.96684306  0.19932360  0.55269284     0.36600
C996        C  0.95290009  0.21615989  0.52943686    -0.05600
C997        C  0.92134530  0.21786873  0.52673234    -0.32600
C998        C  0.90372451  0.20319751  0.54687060     0.36500
H999        H  0.96025408  0.17099038  0.58998602     0.16800
O1000       O  0.99779932  0.19690844  0.55550656    -0.60100
H1001       H  0.91033770  0.23146477  0.50960769     0.16900
O1002       O  0.87280411  0.20559946  0.54367147    -0.60200
H1003       H  0.86719227  0.22404120  0.55454412     0.43800
H1004       H  0.00360865  0.20994247  0.57248718     0.43800
C1005       C  0.97278197  0.02701306  0.71425382    -0.05300
C1006       C  0.97107644  0.05786547  0.71915498    -0.32700
C1007       C  0.94530807  0.07449835  0.70961425     0.36600
C1008       C  0.92097259  0.06032523  0.69469659    -0.05600
C1009       C  0.92388577  0.03007182  0.68738807    -0.32600
C1010       C  0.94947454  0.01341377  0.69706990     0.36500
H1011       H  0.98873613  0.06872211  0.73218124     0.16800
O1012       O  0.94406613  0.10461133  0.71492362    -0.60100
H1013       H  0.90560005  0.01899274  0.67546498     0.16900
O1014       O  0.95050926  0.98335107  0.69148366    -0.60200
H1015       H  0.96357714  0.98083518  0.67427650     0.43800
H1016       H  0.93753474  0.10683685  0.73556670     0.43800
C1017       C  0.80211144  0.19495492  0.59970459    -0.05300
C1018       C  0.81357964  0.22352978  0.59562700    -0.32700
C1019       C  0.79638008  0.24558825  0.58015883     0.36600
C1020       C  0.76670545  0.23962522  0.56950577    -0.05600
C1021       C  0.75398550  0.21248311  0.57776158    -0.32600
C1022       C  0.77160557  0.19001700  0.59175120     0.36500
H1023       H  0.83695802  0.22787868  0.60184301     0.16800
O1024       O  0.80976440  0.27180054  0.57353539    -0.60100
H1025       H  0.73085971  0.20758080  0.57103504     0.16900
O1026       O  0.75935925  0.16260062  0.59558686    -0.60200
H1027       H  0.75212610  0.16290989  0.61606556     0.43800
H1028       H  0.82044357  0.26774185  0.55499658     0.43800
C1029       C  0.78575178  0.98750353  0.55112821    -0.05300
C1030       C  0.77054423  0.00682590  0.57046935    -0.32700
C1031       C  0.78549104  0.03040046  0.58435431     0.36600
C1032       C  0.81624272  0.03449709  0.57964663    -0.05600
C1033       C  0.83216778  0.01403376  0.56216313    -0.32600
C1034       C  0.81704499  0.99054743  0.54782754     0.36500
H1035       H  0.74650240  0.00464936  0.57341297     0.16800
O1036       O  0.76972093  0.04978325  0.60197683    -0.60100
H1037       H  0.85596676  0.01705916  0.55858209     0.16900
O1038       O  0.83237452  0.97242207  0.52869653    -0.60200
H1039       H  0.84178815  0.95645451  0.54122828     0.43800
H1040       H  0.76134438  0.06543788  0.58844270     0.43800
C1041       C  0.73785903  0.01651402  0.71843550    -0.05300
C1042       C  0.75746919  0.00748807  0.69625613    -0.32700
C1043       C  0.77965525  0.02642241  0.68646430     0.36600
C1044       C  0.78288504  0.05511817  0.69914022    -0.05600
C1045       C  0.76216697  0.06468474  0.72030854    -0.32600
C1046       C  0.73969473  0.04570859  0.72980538     0.36500
H1047       H  0.75675668  0.98488844  0.68771607     0.16800
O1048       O  0.79970758  0.01563156  0.66635454    -0.60100
H1049       H  0.76381130  0.08671036  0.73007328     0.16900
O1050       O  0.72139623  0.05499644  0.75203134    -0.60200
H1051       H  0.70459583  0.06644925  0.74198626     0.43800
H1052       H  0.78775018  0.01341669  0.64751488     0.43800
C1053       C  0.80073988  0.78233879  0.93596985    -0.05300
C1054       C  0.81292850  0.75487610  0.94635376    -0.32700
C1055       C  0.79687296  0.73678540  0.96486552     0.36600
C1056       C  0.76754345  0.74540689  0.97282809    -0.05600
C1057       C  0.75476174  0.77224742  0.96148362    -0.32600
C1058       C  0.77122763  0.79082449  0.94356754     0.36500
H1059       H  0.83556414  0.74762219  0.94086399     0.16800
O1060       O  0.81063741  0.71134337  0.97597415    -0.60100
H1061       H  0.73203610  0.77916209  0.96702576     0.16900
O1062       O  0.75796442  0.81674876  0.93307789    -0.60200
H1063       H  0.76103008  0.83154214  0.94924383     0.43800
H1064       H  0.82110854  0.71757093  0.99471424     0.43800
C1065       C  0.54790501  0.92002561  0.18120161    -0.05300
C1066       C  0.55666754  0.94910908  0.18824375    -0.32700
C1067       C  0.53826630  0.96820842  0.20481815     0.36600
C1068       C  0.51090740  0.95803041  0.21602041    -0.05600
C1069       C  0.50106168  0.92967954  0.20700554    -0.32600
C1070       C  0.51920873  0.91086006  0.18959158     0.36500
H1071       H  0.57865238  0.95658527  0.18207337     0.16800
O1072       O  0.54804726  0.99640271  0.21105592    -0.60100
H1073       H  0.48021222  0.92123862  0.21507878     0.16900
O1074       O  0.51016753  0.88237061  0.18379189    -0.60200
H1075       H  0.49897437  0.88344953  0.16440190     0.43800
H1076       H  0.53700293  0.00942728  0.19648912     0.43800
C1077       C  0.70670785  0.90274895  0.20479845    -0.05300
C1078       C  0.73050667  0.91361228  0.18841433    -0.32700
C1079       C  0.75189215  0.93305049  0.20138108     0.36600
C1080       C  0.75027659  0.94115092  0.23148529    -0.05600
C1081       C  0.72847906  0.92763302  0.24842880    -0.32600
C1082       C  0.70661916  0.90919297  0.23539325     0.36500
H1083       H  0.73157734  0.90840217  0.16508386     0.16800
O1084       O  0.77248485  0.94592300  0.18386519    -0.60100
H1085       H  0.72732773  0.93269436  0.27183425     0.16900
O1086       O  0.68498338  0.89790296  0.25284060    -0.60200
H1087       H  0.67032909  0.91460383  0.25589829     0.43800
H1088       H  0.78867071  0.93054747  0.18145319     0.43800
C1089       C  0.68099674  0.94273872  0.07976831    -0.05300
C1090       C  0.67556150  0.95477509  0.05139722    -0.32700
C1091       C  0.69413809  0.97655367  0.04068522     0.36600
C1092       C  0.71842372  0.98704322  0.05843144    -0.05600
C1093       C  0.72286435  0.97670943  0.08739827    -0.32600
C1094       C  0.70409848  0.95497263  0.09830108     0.36500
H1095       H  0.65776710  0.94632817  0.03674608     0.16800
O1096       O  0.68956897  0.98622326  0.01211112    -0.60100
H1097       H  0.74183773  0.98437451  0.10102976     0.16900
O1098       O  0.70944069  0.94506986  0.12661739    -0.60200
H1099       H  0.69665840  0.95809220  0.13907995     0.43800
H1100       H  0.69995351  0.97114857  0.99969306     0.43800
C1101       C  0.54777703  0.80377277  0.19938630    -0.05300
C1102       C  0.51697127  0.80846150  0.19236382    -0.32700
C1103       C  0.49521242  0.79667133  0.21023013     0.36600
C1104       C  0.50424364  0.77908479  0.23490364    -0.05600
C1105       C  0.53508955  0.77447073  0.24188738    -0.32600
C1106       C  0.55680077  0.78680858  0.22439769     0.36500
H1107       H  0.50981076  0.82226741  0.17372806     0.16800
O1108       O  0.46515826  0.80235573  0.20339434    -0.60100
H1109       H  0.54236307  0.76059256  0.26044421     0.16900
O1110       O  0.58687118  0.78236855  0.23199126    -0.60200
H1111       H  0.59311246  0.76419765  0.22099195     0.43800
H1112       H  0.45895690  0.81828847  0.21736702     0.43800
C1113       C  0.70473793  0.75020988  0.05949640    -0.05300
C1114       C  0.71954126  0.76518563  0.08319023    -0.32700
C1115       C  0.70703688  0.79165591  0.09508186     0.36600
C1116       C  0.67983015  0.80384706  0.08264044    -0.05600
C1117       C  0.66447450  0.78790562  0.06005104    -0.32600
C1118       C  0.67652305  0.76134998  0.04870959     0.36500
H1119       H  0.74175902  0.75745642  0.09109472     0.16800
O1120       O  0.72250058  0.80630949  0.11742107    -0.60100
H1121       H  0.64332345  0.79660957  0.05039411     0.16900
O1122       O  0.66212827  0.74818010  0.02478256    -0.60200
H1123       H  0.65052682  0.73182158  0.03312840     0.43800
H1124       H  0.73569087  0.82026835  0.10734530     0.43800
C1125       C  0.30966559  0.55651201  0.18046542    -0.05300
C1126       C  0.28278481  0.54275982  0.17046046    -0.32700
C1127       C  0.26605191  0.52549126  0.18928327     0.36600
C1128       C  0.27579458  0.52173464  0.21899414    -0.05600
C1129       C  0.30241252  0.53587179  0.22921780    -0.32600
C1130       C  0.31945285  0.55278158  0.21020853     0.36500
H1131       H  0.27469389  0.54504818  0.14768334     0.16800
O1132       O  0.24123762  0.51094644  0.17790847    -0.60100
H1133       H  0.31024177  0.53358874  0.25209576     0.16900
O1134       O  0.34501814  0.56628547  0.22122773    -0.60200
H1135       H  0.36139781  0.55091946  0.21996993     0.43800
H1136       H  0.22509363  0.52652663  0.17545931     0.43800
C1137       C  0.31166625  0.56597137  0.04760151    -0.05300
C1138       C  0.31337912  0.56428190  0.01677177    -0.32700
C1139       C  0.29888933  0.54133581  0.00086526     0.36600
C1140       C  0.28273745  0.51961272  0.01591258    -0.05600
C1141       C  0.28355635  0.51992526  0.04682756    -0.32600
C1142       C  0.29769471  0.54285994  0.06260527     0.36500
H1143       H  0.32435102  0.58163101  0.00493838     0.16800
O1144       O  0.29885436  0.54147462  0.97054415    -0.60100
H1145       H  0.27115997  0.50365558  0.05877617     0.16900
O1146       O  0.29645171  0.54322764  0.09281463    -0.60200
H1147       H  0.31524728  0.53273051  0.10002422     0.43800
H1148       H  0.31524732  0.52721075  0.96524936     0.43800
C1149       C  0.30709894  0.70406688  0.06944098    -0.05300
C1150       C  0.27665241  0.71226507  0.07367741    -0.32700
C1151       C  0.26357484  0.73780219  0.06032548     0.36600
C1152       C  0.28085782  0.75586729  0.04245220    -0.05600
C1153       C  0.31178125  0.74918870  0.04012781    -0.32600
C1154       C  0.32496097  0.72359910  0.05348210     0.36500
H1155       H  0.26245496  0.69810231  0.08622822     0.16800
O1156       O  0.23328768  0.74381934  0.06316337    -0.60100
H1157       H  0.32535759  0.76280192  0.02636718     0.16900
O1158       O  0.35529534  0.71786368  0.05067804    -0.60200
H1159       H  0.35725754  0.71020817  0.03022019     0.43800
H1160       H  0.23212662  0.75764433  0.08030526     0.43800
C1161       C  0.41786050  0.66178980  0.18031436    -0.05300
C1162       C  0.42782878  0.65123570  0.20817620    -0.32700
C1163       C  0.43377460  0.67112660  0.23146254     0.36600
C1164       C  0.42861118  0.70189855  0.22718178    -0.05600
C1165       C  0.41548481  0.71188059  0.20005135    -0.32600
C1166       C  0.41069906  0.69210725  0.17650193     0.36500
H1167       H  0.43287702  0.62771212  0.21131794     0.16800
O1168       O  0.44691583  0.66048700  0.25735564    -0.60100
H1169       H  0.41122813  0.73545600  0.19640329     0.16900
O1170       O  0.40014705  0.70273861  0.14958869    -0.60200
H1171       H  0.37800182  0.69974486  0.14920968     0.43800
H1172       H  0.46902119  0.66075058  0.25449113     0.43800
C1173       C  0.55015218  0.82201225  0.05001357    -0.05300
C1174       C  0.56473947  0.80824399  0.02594281    -0.32700
C1175       C  0.54862199  0.79615622  0.00155995     0.36600
C1176       C  0.51686841  0.79712831  0.00030550    -0.05600
C1177       C  0.50196287  0.81113328  0.02406529    -0.32600
C1178       C  0.51826671  0.82359595  0.04858741     0.36500
H1179       H  0.58917859  0.80623909  0.02601324     0.16800
O1180       O  0.56425446  0.78129570  0.98014503    -0.60100
H1181       H  0.47747165  0.81174859  0.02392500     0.16900
O1182       O  0.50278176  0.83747396  0.07067235    -0.60200
H1183       H  0.49918868  0.82162865  0.08518410     0.43800
H1184       H  0.57092518  0.79700814  0.96673683     0.43800
C1185       C  0.45828164  0.70668096  0.98535042    -0.05300
C1186       C  0.42785346  0.69870695  0.98115215    -0.32700
C1187       C  0.41495774  0.67809368  0.00017826     0.36600
C1188       C  0.43241954  0.66591527  0.02421905    -0.05600
C1189       C  0.46348272  0.67194916  0.02626141    -0.32600
C1190       C  0.47636315  0.69174620  0.00710315     0.36500
H1191       H  0.41371396  0.70959266  0.96419675     0.16800
O1192       O  0.38502449  0.67143978  0.99603693    -0.60100
H1193       H  0.47791897  0.66215285  0.04365163     0.16900
O1194       O  0.50648470  0.69788157  0.01112518    -0.60200
H1195       H  0.51692740  0.68518888  0.99646993     0.43800
H1196       H  0.38477762  0.65414673  0.98227165     0.43800
C1197       C  0.50143746  0.52494140  0.20712742    -0.05300
C1198       C  0.50439858  0.52034150  0.17658504    -0.32700
C1199       C  0.48250660  0.53199013  0.15600778     0.36600
C1200       C  0.45666442  0.54768073  0.16582305    -0.05600
C1201       C  0.45384016  0.55237688  0.19620093    -0.32600
C1202       C  0.47594350  0.54156380  0.21669241     0.36500
H1203       H  0.52350514  0.50747149  0.16868402     0.16800
O1204       O  0.48636145  0.52768420  0.12632719    -0.60100
H1205       H  0.43512948  0.56588398  0.20406529     0.16900
O1206       O  0.47325506  0.54864380  0.24608963    -0.60200
H1207       H  0.45515214  0.53815142  0.25245789     0.43800
H1208       H  0.50007392  0.54359511  0.12052778     0.43800
C1209       C  0.33335136  0.44456849  0.46739741    -0.05300
C1210       C  0.30338718  0.43647314  0.46127783    -0.32700
C1211       C  0.27944350  0.45549693  0.46851474     0.36600
C1212       C  0.28524803  0.48269430  0.48318521    -0.05600
C1213       C  0.31517775  0.49014099  0.49075637    -0.32600
C1214       C  0.33923907  0.47144868  0.48257859     0.36500
H1215       H  0.29850389  0.41658575  0.44838800     0.16800
O1216       O  0.25058970  0.44851015  0.45905366    -0.60100
H1217       H  0.31990600  0.51064337  0.50265440     0.16900
O1218       O  0.36842046  0.47979889  0.48892895    -0.60200
H1219       H  0.37245761  0.49556583  0.47445728     0.43800
H1220       H  0.24527732  0.43092681  0.47075766     0.43800
C1221       C  0.50993642  0.47174513  0.30136280    -0.05300
C1222       C  0.48641999  0.48969812  0.31244540    -0.32700
C1223       C  0.46582829  0.47834630  0.33188475     0.36600
C1224       C  0.46860870  0.44842978  0.34105204    -0.05600
C1225       C  0.49349289  0.43108143  0.33153664    -0.32600
C1226       C  0.51410812  0.44256852  0.31198030     0.36500
H1227       H  0.48314247  0.51241432  0.30484019     0.16800
O1228       O  0.44256649  0.49653811  0.34092581    -0.60100
H1229       H  0.49651655  0.40814186  0.33847826     0.16900
O1230       O  0.53678910  0.42440278  0.30171347    -0.60200
H1231       H  0.55323747  0.42515476  0.31720675     0.43800
H1232       H  0.42649182  0.49496655  0.32512735     0.43800
C1233       C  0.32101263  0.30314153  0.43752657    -0.05300
C1234       C  0.31760751  0.30659651  0.46793104    -0.32700
C1235       C  0.30294170  0.28508429  0.48389345     0.36600
C1236       C  0.28970306  0.26030908  0.46919871    -0.05600
C1237       C  0.29313451  0.25691702  0.43866500    -0.32600
C1238       C  0.30896378  0.27794180  0.42292338     0.36500
H1239       H  0.32778473  0.32521062  0.47962922     0.16800
O1240       O  0.30175277  0.28843519  0.51401547    -0.60100
H1241       H  0.28303003  0.23831257  0.42691210     0.16900
O1242       O  0.31289963  0.27352865  0.39326870    -0.60200
H1243       H  0.29652580  0.28551884  0.38317295     0.43800
H1244       H  0.31875395  0.27593043  0.52229733     0.43800
C1245       C  0.33547761  0.42703511  0.33395186    -0.05300
C1246       C  0.30883604  0.43970330  0.34527021    -0.32700
C1247       C  0.28439804  0.44841846  0.32648541     0.36600
C1248       C  0.28602765  0.44424443  0.29572572    -0.05600
C1249       C  0.31150717  0.42919467  0.28461596    -0.32600
C1250       C  0.33615514  0.42075131  0.30338471     0.36500
H1251       H  0.30741573  0.44421462  0.36875375     0.16800
O1252       O  0.26004985  0.46306499  0.33826503    -0.60100
H1253       H  0.31315681  0.42580001  0.26097891     0.16900
O1254       O  0.36138420  0.40807180  0.29130012    -0.60200
H1255       H  0.37386104  0.42504765  0.28570097     0.43800
H1256       H  0.26492544  0.48449329  0.33779967     0.43800
C1257       C  0.44798181  0.32394581  0.31105857    -0.05300
C1258       C  0.46500270  0.34399257  0.29515517    -0.32700
C1259       C  0.48275135  0.33384321  0.27212056     0.36600
C1260       C  0.48300062  0.30355060  0.26449412    -0.05600
C1261       C  0.46405749  0.28402278  0.27864945    -0.32600
C1262       C  0.44685392  0.29395366  0.30210921     0.36500
H1263       H  0.46589636  0.36723719  0.30167308     0.16800
O1264       O  0.50168669  0.35304689  0.25897326    -0.60100
H1265       H  0.46448262  0.26051833  0.27299945     0.16900
O1266       O  0.42928898  0.27419947  0.31629295    -0.60200
H1267       H  0.44338205  0.26329218  0.33018409     0.43800
H1268       H  0.48923507  0.36245314  0.24275079     0.43800
C1269       C  0.46723536  0.30461868  0.51949245    -0.05300
C1270       C  0.43554796  0.30453064  0.51856273    -0.32700
C1271       C  0.41898366  0.31774969  0.49484026     0.36600
C1272       C  0.43418236  0.33098033  0.47161382    -0.05600
C1273       C  0.46560738  0.33360747  0.47403996    -0.32600
C1274       C  0.48206863  0.32118369  0.49812363     0.36500
H1275       H  0.42377595  0.29185087  0.53463955     0.16800
O1276       O  0.38813690  0.31530821  0.49324066    -0.60100
H1277       H  0.47751000  0.34418511  0.45660734     0.16900
O1278       O  0.51301498  0.32270648  0.49903126    -0.60200
H1279       H  0.51780158  0.33873059  0.51354762     0.43800
H1280       H  0.38437935  0.29617585  0.48279230     0.43800
C1281       C  0.56505563  0.05695129  0.33264428    -0.05300
C1282       C  0.54241561  0.07165407  0.31516321    -0.32700
C1283       C  0.51869126  0.05597788  0.30129934     0.36600
C1284       C  0.51755292  0.02485083  0.30410496    -0.05600
C1285       C  0.53939197  0.01024958  0.32269200    -0.32600
C1286       C  0.56285602  0.02610453  0.33711171     0.36500
H1287       H  0.54371163  0.09538803  0.31141399     0.16800
O1288       O  0.49833741  0.07092755  0.28284914    -0.60100
H1289       H  0.53907278  0.98625677  0.32486368     0.16900
O1290       O  0.58452907  0.01096493  0.35390305    -0.60200
H1291       H  0.60002155  0.00441940  0.33980950     0.43800
H1292       H  0.48193183  0.07787722  0.29573987     0.43800
C1293       C  0.74820266  0.03096230  0.29495163    -0.05300
C1294       C  0.73573141  0.01982968  0.32056375    -0.32700
C1295       C  0.71302963  0.03582752  0.33511128     0.36600
C1296       C  0.70170050  0.06326894  0.32358771    -0.05600
C1297       C  0.71552608  0.07497353  0.29871925    -0.32600
C1298       C  0.73864557  0.05913936  0.28459376     0.36500
H1299       H  0.74280065  0.99800112  0.32863815     0.16800
O1300       O  0.70108452  0.02355165  0.35960791    -0.60100
H1301       H  0.70786769  0.09616520  0.28955470     0.16900
O1302       O  0.75016190  0.07037389  0.25938162    -0.60200
H1303       H  0.76598507  0.08430586  0.26640518     0.43800
H1304       H  0.71525114  0.02871230  0.37629071     0.43800
C1305       C  0.67665058  0.18989583  0.44478096    -0.05300
C1306       C  0.70785547  0.18647683  0.45042080    -0.32700
C1307       C  0.72444733  0.20942247  0.46422383     0.36600
C1308       C  0.70962015  0.23598270  0.47371035    -0.05600
C1309       C  0.67882032  0.24015245  0.46599736    -0.32600
C1310       C  0.66248560  0.21755541  0.45140746     0.36500
H1311       H  0.71926682  0.16568453  0.44486845     0.16800
O1312       O  0.75513280  0.20555623  0.46904899    -0.60100
H1313       H  0.66684031  0.26007167  0.47319468     0.16900
O1314       O  0.63194200  0.22165142  0.44643482    -0.60200
H1315       H  0.62963656  0.23048899  0.42643081     0.43800
H1316       H  0.75787747  0.18825547  0.48247432     0.43800
C1317       C  0.58393609  0.19555952  0.32001697    -0.05300
C1318       C  0.57189571  0.18559900  0.29255731    -0.32700
C1319       C  0.56392563  0.20528003  0.26994197     0.36600
C1320       C  0.56797350  0.23601313  0.27415485    -0.05600
C1321       C  0.58131481  0.24611106  0.30114722    -0.32600
C1322       C  0.58906098  0.22613526  0.32411545     0.36500
H1323       H  0.56759710  0.16222844  0.28859689     0.16800
O1324       O  0.54932916  0.19433936  0.24498085    -0.60100
H1325       H  0.58441923  0.26971364  0.30490378     0.16900
O1326       O  0.60141879  0.23673909  0.35027863    -0.60200
H1327       H  0.58390052  0.24240139  0.36233282     0.43800
H1328       H  0.56543899  0.18484515  0.23322075     0.43800
C1329       C  0.56426918  0.17928292  0.47202656    -0.05300
C1330       C  0.56325098  0.21002256  0.46735477    -0.32700
C1331       C  0.55086882  0.22959343  0.48826185     0.36600
C1332       C  0.53730824  0.21843674  0.51377760    -0.05600
C1333       C  0.53840884  0.18755934  0.51840488    -0.32600
C1334       C  0.55230908  0.16817566  0.49820100     0.36500
H1335       H  0.57337985  0.21910264  0.44807088     0.16800
O1336       O  0.55366187  0.25971283  0.48443294    -0.60100
H1337       H  0.52812128  0.17829193  0.53752063     0.16900
O1338       O  0.55349221  0.13820936  0.50389991    -0.60200
H1339       H  0.57046957  0.13535582  0.51864920     0.43800
H1340       H  0.54235037  0.26458194  0.46565498     0.43800
C1341       C  0.69904103  0.98173160  0.48016901    -0.05300
C1342       C  0.68178627  0.00212432  0.49653714    -0.32700
C1343       C  0.66470748  0.02456094  0.48239033     0.36600
C1344       C  0.66434503  0.02659540  0.45139157    -0.05600
C1345       C  0.67778015  0.00364026  0.43481324    -0.32600
C1346       C  0.69543740  0.98130131  0.44907738     0.36500
H1347       H  0.68353931  0.00211536  0.52051032     0.16800
O1348       O  0.65009405  0.04558632  0.49914916    -0.60100
H1349       H  0.67675774  0.00440342  0.41087888     0.16900
O1350       O  0.71087364  0.96074730  0.43247068    -0.60200
H1351       H  0.72886805  0.97116707  0.42576342     0.43800
H1352       H  0.62918886  0.03838358  0.50054919     0.43800
C1353       C  0.15904870  0.44981626  0.56914100    -0.05300
C1354       C  0.16636794  0.47880199  0.57909337    -0.32700
C1355       C  0.18109772  0.49866908  0.56126143     0.36600
C1356       C  0.18886476  0.49001361  0.53265312    -0.05600
C1357       C  0.17951299  0.46196497  0.52175503    -0.32600
C1358       C  0.16517386  0.44179274  0.53983848     0.36500
H1359       H  0.16185389  0.48596316  0.60144847     0.16800
O1360       O  0.19035411  0.52528389  0.57311988    -0.60100
H1361       H  0.18505048  0.45494585  0.49959029     0.16900
O1362       O  0.15756387  0.41437926  0.52869045    -0.60200
H1363       H  0.17618571  0.40178682  0.53124866     0.43800
H1364       H  0.17211489  0.53855650  0.57213754     0.43800
C1365       C  0.04086060  0.28187936  0.77011576    -0.05300
C1366       C  0.03631420  0.31199459  0.76318478    -0.32700
C1367       C  0.05289377  0.32504348  0.74115261     0.36600
C1368       C  0.07380060  0.30760929  0.72514410    -0.05600
C1369       C  0.08018323  0.27816783  0.73418609    -0.32600
C1370       C  0.06388702  0.26532601  0.75649255     0.36500
H1371       H  0.01857252  0.32489629  0.77355057     0.16800
O1372       O  0.04732834  0.35442481  0.73449045    -0.60100
H1373       H  0.09647158  0.26440241  0.72271815     0.16900
O1374       O  0.06865122  0.23575033  0.76290020    -0.60200
H1375       H  0.08137411  0.23548824  0.78143416     0.43800
H1376       H  0.06234383  0.36556727  0.74676553     0.43800
C1377       C  0.05641669  0.31131103  0.58696471    -0.05300
C1378       C  0.02933617  0.32573795  0.57737613    -0.32700
C1379       C  0.01431143  0.31697504  0.55105545     0.36600
C1380       C  0.02668049  0.29399838  0.53359422    -0.05600
C1381       C  0.05483653  0.28124853  0.54190306    -0.32600
C1382       C  0.06957949  0.28945853  0.56847998     0.36500
H1383       H  0.01914513  0.34295844  0.59091457     0.16800
O1384       O  0.98633596  0.32918574  0.54381206    -0.60100
H1385       H  0.06424085  0.26309914  0.52896527     0.16900
O1386       O  0.09688830  0.27598281  0.57608335    -0.60200
H1387       H  0.09186287  0.25640087  0.58435580     0.43800
H1388       H  0.99014234  0.34514663  0.52949243     0.43800
C1389       C  0.19125841  0.41352715  0.68180653    -0.05300
C1390       C  0.21729691  0.42271467  0.66792617    -0.32700
C1391       C  0.24123088  0.43515047  0.68455834     0.36600
C1392       C  0.23933280  0.43791532  0.71542850    -0.05600
C1393       C  0.21497219  0.42522296  0.72945436    -0.32600
C1394       C  0.19071015  0.41363576  0.71281240     0.36500
H1395       H  0.21791648  0.42275318  0.64399207     0.16800
O1396       O  0.26435957  0.44786309  0.67019028    -0.60100
H1397       H  0.21340755  0.42697270  0.75326696     0.16900
O1398       O  0.16605356  0.40357429  0.72692054    -0.60200
H1399       H  0.15419558  0.42173143  0.73220815     0.43800
H1400       H  0.27979364  0.43169284  0.66812809     0.43800
C1401       C  0.18305399  0.30023617  0.57854563    -0.05300
C1402       C  0.19816194  0.27447315  0.58958688    -0.32700
C1403       C  0.21147323  0.25359781  0.57056739     0.36600
C1404       C  0.20913793  0.25775685  0.53977175    -0.05600
C1405       C  0.19332556  0.28328038  0.52873058    -0.32600
C1406       C  0.18048542  0.30441041  0.54782950     0.36500
H1407       H  0.19944100  0.27043742  0.61320074     0.16800
O1408       O  0.22737896  0.22966481  0.58238418    -0.60100
H1409       H  0.19146023  0.28712792  0.50510134     0.16900
O1410       O  0.16483852  0.32861720  0.53624250    -0.60200
H1411       H  0.14365591  0.32211195  0.53337656     0.43800
H1412       H  0.24869210  0.23602018  0.58410396     0.43800
C1413       C  0.02602171  0.43145375  0.68430923    -0.05300
C1414       C  0.00748232  0.41602763  0.70320079    -0.32700
C1415       C  0.98617519  0.43156130  0.72002481     0.36600
C1416       C  0.98293433  0.46267436  0.71745407    -0.05600
C1417       C  0.99923697  0.47751870  0.69633643    -0.32600
C1418       C  0.02081699  0.46218792  0.67997807     0.36500
H1419       H  0.01098129  0.39234964  0.70649581     0.16800
O1420       O  0.97096834  0.41668976  0.74101052    -0.60100
H1421       H  0.99677187  0.50147166  0.69408688     0.16900
O1422       O  0.03728528  0.47753222  0.66026784    -0.60200
H1423       H  0.05273859  0.48816121  0.67249847     0.43800
H1424       H  0.95189930  0.41043459  0.73081502     0.43800
C1425       C  0.67236963  0.49427774  0.25632414    -0.05300
C1426       C  0.65610088  0.49364173  0.22893307    -0.32700
C1427       C  0.62418039  0.49565139  0.22708176     0.36600
C1428       C  0.60732611  0.49849404  0.25299570    -0.05600
C1429       C  0.62381919  0.50004981  0.28032796    -0.32600
C1430       C  0.65565192  0.49768619  0.28217507     0.36500
H1431       H  0.66818580  0.49124345  0.20864445     0.16800
O1432       O  0.60978761  0.49290101  0.19984455    -0.60100
H1433       H  0.61205129  0.50276184  0.30074890     0.16900
O1434       O  0.67000477  0.49668415  0.30960418    -0.60200
H1435       H  0.66804483  0.51715348  0.31780545     0.43800
H1436       H  0.61332168  0.51184574  0.18952971     0.43800
C1437       C  0.73562488  0.40221996  0.51583681    -0.05300
C1438       C  0.76243784  0.38598697  0.52347763    -0.32700
C1439       C  0.76326107  0.35452372  0.52440110     0.36600
C1440       C  0.73695367  0.33806241  0.51764160    -0.05600
C1441       C  0.71033821  0.35423609  0.50928825    -0.32600
C1442       C  0.70946433  0.38574376  0.50852424     0.36500
H1443       H  0.78297774  0.39779176  0.52901825     0.16800
O1444       O  0.79020099  0.34010609  0.53150000    -0.60100
H1445       H  0.68985161  0.34240194  0.50360767     0.16900
O1446       O  0.68317135  0.40016481  0.49922670    -0.60200
H1447       H  0.66915587  0.39810902  0.51564530     0.43800
H1448       H  0.79950530  0.33578138  0.51228559     0.43800
C1449       C  0.82667922  0.50545982  0.76709818    -0.05300
C1450       C  0.84210951  0.47773397  0.76740214    -0.32700
C1451       C  0.87369489  0.47581884  0.76809470     0.36600
C1452       C  0.89078533  0.50187479  0.76787778    -0.05600
C1453       C  0.87553554  0.52969605  0.76844552    -0.32600
C1454       C  0.84374131  0.53163385  0.76799054     0.36500
H1455       H  0.82960648  0.45728019  0.76677358     0.16800
O1456       O  0.88766449  0.44823591  0.76897314    -0.60100
H1457       H  0.88827175  0.55000676  0.76860715     0.16900
O1458       O  0.82962135  0.55910453  0.76949831    -0.60200
H1459       H  0.83187184  0.56815876  0.74979621     0.43800
H1460       H  0.89236585  0.44443589  0.79024531     0.43800
C1461       C  0.40221223  0.48197120  0.74309067    -0.05300
C1462       C  0.38504387  0.50829046  0.73800303    -0.32700
C1463       C  0.35352459  0.50896783  0.74048184     0.36600
C1464       C  0.33839661  0.48296373  0.74803121    -0.05600
C1465       C  0.35557793  0.45660989  0.75309925    -0.32600
C1466       C  0.38714854  0.45597966  0.75076484     0.36500
H1467       H  0.39612740  0.52852348  0.73204754     0.16800
O1468       O  0.33752835  0.53471205  0.73370082    -0.60100
H1469       H  0.34444359  0.43628329  0.75865139     0.16900
O1470       O  0.40286826  0.42946837  0.75433613    -0.60200
H1471       H  0.40307285  0.42537099  0.77585962     0.43800
H1472       H  0.34122144  0.54823732  0.75083029     0.43800
C1473       C  0.75315124  0.82621929  0.49834901    -0.05300
C1474       C  0.75486174  0.83910871  0.52675996    -0.32700
C1475       C  0.75742772  0.86989505  0.53045604     0.36600
C1476       C  0.75803714  0.88829964  0.50545628    -0.05600
C1477       C  0.75846446  0.87520935  0.47715472    -0.32600
C1478       C  0.75626618  0.84435992  0.47348757     0.36500
H1479       H  0.75268272  0.82537232  0.54612376     0.16800
O1480       O  0.75631501  0.88196433  0.55835886    -0.60100
H1481       H  0.75904976  0.88912718  0.45772863     0.16900
O1482       O  0.75428502  0.83254875  0.44544857    -0.60200
H1483       H  0.77542219  0.83112580  0.43894116     0.43800
H1484       H  0.77700215  0.87900243  0.56723011     0.43800
C1485       C  0.46522387  0.74230086  0.39051937    -0.05300
C1486       C  0.49181071  0.73665838  0.37527770    -0.32700
C1487       C  0.49108336  0.73499041  0.34435650     0.36600
C1488       C  0.46345770  0.73905497  0.32811398    -0.05600
C1489       C  0.43664081  0.74300981  0.34341925    -0.32600
C1490       C  0.43741207  0.74487672  0.37440632     0.36500
H1491       H  0.51334442  0.73433855  0.38737480     0.16800
O1492       O  0.51757950  0.72978950  0.33018945    -0.60100
H1493       H  0.41516871  0.74569508  0.33128933     0.16900
O1494       O  0.41086906  0.74870815  0.38882663    -0.60200
H1495       H  0.40515818  0.77006071  0.38644258     0.43800
H1496       H  0.51833086  0.70803147  0.32629562     0.43800
C1497       C  0.49489515  0.76046496  0.83016175    -0.05300
C1498       C  0.50115039  0.73394962  0.84602016    -0.32700
C1499       C  0.50070557  0.73302120  0.87727999     0.36600
C1500       C  0.49371838  0.75890366  0.89401741    -0.05600
C1501       C  0.48887521  0.78569540  0.87838501    -0.32600
C1502       C  0.48939741  0.78667750  0.84708390     0.36500
H1503       H  0.50591833  0.71344731  0.83416772     0.16800
O1504       O  0.50841200  0.70681535  0.89136836    -0.60100
H1505       H  0.48404104  0.80606767  0.89045875     0.16900
O1506       O  0.48578907  0.81374545  0.83338416    -0.60200
H1507       H  0.46452020  0.82016367  0.83642266     0.43800
H1508       H  0.49183603  0.69301384  0.88616303     0.43800
C1509       C  0.75831231  0.14303762  0.00825365    -0.05300
C1510       C  0.73162539  0.12709577  0.01075969    -0.32700
C1511       C  0.73247204  0.09630131  0.01565663     0.36600
C1512       C  0.76048410  0.08059507  0.01828069    -0.05600
C1513       C  0.78724173  0.09656520  0.01575363    -0.32600
C1514       C  0.78632662  0.12738747  0.01064594     0.36500
H1515       H  0.70983643  0.13858580  0.00887966     0.16800
O1516       O  0.70569444  0.08153499  0.01606379    -0.60100
H1517       H  0.80902060  0.08506048  0.01759358     0.16900
O1518       O  0.81294747  0.14180638  0.00732942    -0.60200
H1519       H  0.81592023  0.14189623  0.98570778     0.43800
H1520       H  0.69622516  0.08788311  0.03469112     0.43800
C1521       C  0.07883524  0.99533896  0.75221272    -0.05300
C1522       C  0.09396259  0.02255822  0.75240862    -0.32700
C1523       C  0.12589152  0.02331408  0.75344493     0.36600
C1524       C  0.14340729  0.99648784  0.75442195    -0.05600
C1525       C  0.12799738  0.96943549  0.75384036    -0.32600
C1526       C  0.09639660  0.96869756  0.75215273     0.36500
H1527       H  0.08103328  0.04334443  0.75203883     0.16800
O1528       O  0.13962883  0.05030763  0.75209096    -0.60100
H1529       H  0.14049088  0.94842437  0.75469318     0.16900
O1530       O  0.08290226  0.94154178  0.75003537    -0.60200
H1531       H  0.07861303  0.93834706  0.72857525     0.43800
H1532       H  0.13651794  0.05998413  0.77156249     0.43800
C1533       C  0.98998871  0.73972917  0.09122041    -0.05300
C1534       C  0.98921868  0.71028779  0.10158245    -0.32700
C1535       C  0.98888401  0.70420228  0.13209843     0.36600
C1536       C  0.99000176  0.72769376  0.15300137    -0.05600
C1537       C  0.99079281  0.75707204  0.14253789    -0.32600
C1538       C  0.99058426  0.76317904  0.11213416     0.36500
H1539       H  0.98881584  0.69189594  0.08594257     0.16800
O1540       O  0.98904878  0.67517089  0.14128449    -0.60100
H1541       H  0.99163158  0.77553510  0.15808427     0.16900
O1542       O  0.99264996  0.79213672  0.10313105    -0.60200
H1543       H  0.97237707  0.80134212  0.10604822     0.43800
H1544       H  0.96806064  0.66843963  0.13749145     0.43800
C1545       C  0.24140276  0.64788073  0.48974313    -0.05300
C1546       C  0.26751341  0.63011785  0.49559124    -0.32700
C1547       C  0.26597804  0.59931416  0.49962933     0.36600
C1548       C  0.23794189  0.58477801  0.49658281    -0.05600
C1549       C  0.21168310  0.60255777  0.49109255    -0.32600
C1550       C  0.21319730  0.63372338  0.48790730     0.36500
H1551       H  0.28950750  0.64021867  0.49731700     0.16800
O1552       O  0.29220588  0.58386585  0.50726055    -0.60100
H1553       H  0.18978604  0.59233109  0.48904479     0.16900
O1554       O  0.18683704  0.65024387  0.48458715    -0.60200
H1555       H  0.17875924  0.64565163  0.46434966     0.43800
H1556       H  0.29177423  0.58121226  0.52898569     0.43800
C1557       C  0.25054557  0.09486305  0.49295439    -0.05300
C1558       C  0.25029348  0.10913109  0.52083547    -0.32700
C1559       C  0.25000813  0.14054340  0.52361775     0.36600
C1560       C  0.25036705  0.15881343  0.49828046    -0.05600
C1561       C  0.25143797  0.14452855  0.47048413    -0.32600
C1562       C  0.25136302  0.11317588  0.46766497     0.36500
H1563       H  0.24994529  0.09587598  0.54071435     0.16800
O1564       O  0.25082464  0.15311014  0.55136901    -0.60100
H1565       H  0.25201987  0.15777940  0.45061330     0.16900
O1566       O  0.25356310  0.10063336  0.44005090    -0.60200
H1567       H  0.23381278  0.10496696  0.42967157     0.43800
H1568       H  0.23044453  0.15016173  0.55910203     0.43800
C1569       C  0.99829314  0.74593161  0.58674642    -0.05300
C1570       C  0.97359257  0.73735713  0.60331889    -0.32700
C1571       C  0.97425351  0.73936263  0.63439655     0.36600
C1572       C  0.99955418  0.75111155  0.65008256    -0.05600
C1573       C  0.02429606  0.75962460  0.63369458    -0.32600
C1574       C  0.02393645  0.75706373  0.60257562     0.36500
H1575       H  0.95345348  0.72885554  0.59219889     0.16800
O1576       O  0.95020859  0.72895958  0.64918458    -0.60100
H1577       H  0.04417823  0.76842233  0.64507118     0.16900
O1578       O  0.04950542  0.76401013  0.58811665    -0.60200
H1579       H  0.05093955  0.78597943  0.58968597     0.43800
H1580       H  0.95574277  0.70798946  0.65404958     0.43800
C1581       C  0.17938071  0.94793155  0.42464471    -0.05300
C1582       C  0.20821200  0.95411639  0.41451841    -0.32700
C1583       C  0.22392810  0.97910927  0.42475062     0.36600
C1584       C  0.21097911  0.99873885  0.44546995    -0.05600
C1585       C  0.18116676  0.99422933  0.45354850    -0.32600
C1586       C  0.16540541  0.96905821  0.44344373     0.36500
H1587       H  0.21948016  0.93861012  0.39995113     0.16800
O1588       O  0.25332879  0.98234521  0.41698333    -0.60100
H1589       H  0.17104244  0.00877784  0.46983430     0.16900
O1590       O  0.13664730  0.96502986  0.45271575    -0.60200
H1591       H  0.13927619  0.95670396  0.47292465     0.43800
H1592       H  0.25216181  0.99586042  0.39973131     0.43800
C1593       C  0.05952064  0.81122668  0.44151440    -0.05300
C1594       C  0.07152688  0.80469577  0.47023932    -0.32700
C1595       C  0.05566131  0.78841667  0.49058604     0.36600
C1596       C  0.02651714  0.77830592  0.48306262    -0.05600
C1597       C  0.01395442  0.78537226  0.45461242    -0.32600
C1598       C  0.03022938  0.80137715  0.43392255     0.36500
H1599       H  0.09391620  0.81175309  0.47719720     0.16800
O1600       O  0.06990368  0.78072829  0.51701533    -0.60100
H1601       H  0.99146400  0.77813852  0.44816749     0.16900
O1602       O  0.01720476  0.80719904  0.40652879    -0.60200
H1603       H  0.02278978  0.78979397  0.39408546     0.43800
H1604       H  0.07039005  0.79934009  0.52895746     0.43800
C1605       C  0.06683797  0.79090546  0.29323818    -0.05300
C1606       C  0.06450827  0.76065269  0.29979263    -0.32700
C1607       C  0.04801171  0.74169716  0.28057939     0.36600
C1608       C  0.03340338  0.75309930  0.25447084    -0.05600
C1609       C  0.03571492  0.78342389  0.24825162    -0.32600
C1610       C  0.05206253  0.80218322  0.26728600     0.36500
H1611       H  0.07624519  0.75151268  0.31925607     0.16800
O1612       O  0.04752847  0.71183571  0.28669968    -0.60100
H1613       H  0.02412510  0.79290355  0.22886379     0.16900
O1614       O  0.05331352  0.83178944  0.26035394    -0.60200
H1615       H  0.03540566  0.84122039  0.26945931     0.43800
H1616       H  0.03578953  0.71023131  0.30484897     0.43800
C1617       C  0.18787026  0.80481321  0.42516507    -0.05300
C1618       C  0.21179878  0.79122940  0.41004271    -0.32700
C1619       C  0.22470590  0.76385129  0.41961525     0.36600
C1620       C  0.21308482  0.74907167  0.44396067    -0.05600
C1621       C  0.18773402  0.76143837  0.45747730    -0.32600
C1622       C  0.17547797  0.78913717  0.44868712     0.36500
H1623       H  0.22143025  0.80248313  0.39164591     0.16800
O1624       O  0.25019060  0.75288509  0.40662657    -0.60100
H1625       H  0.17903541  0.75082882  0.47674413     0.16900
O1626       O  0.15139068  0.80070924  0.46349779    -0.60200
H1627       H  0.16033747  0.81026168  0.48152928     0.43800
H1628       H  0.24264548  0.74045973  0.38982670     0.43800
C1629       C  0.28428226  0.92116997  0.68468464    -0.05300
C1630       C  0.25662150  0.93292358  0.67269492    -0.32700
C1631       C  0.23569036  0.94738799  0.69036083     0.36600
C1632       C  0.24192138  0.95028592  0.72082777    -0.05600
C1633       C  0.26830697  0.93638388  0.73337072    -0.32600
C1634       C  0.28954439  0.92208716  0.71551372     0.36500
H1635       H  0.25139584  0.93199746  0.64914786     0.16800
O1636       O  0.21066970  0.96104552  0.67714999    -0.60100
H1637       H  0.27318946  0.93799024  0.75698579     0.16900
O1638       O  0.31516444  0.90922994  0.72838126    -0.60200
H1639       H  0.32931636  0.92580445  0.73183039     0.43800
H1640       H  0.19623572  0.94483904  0.67300191     0.43800
C1641       C  0.28482956  0.98993929  0.52654454    -0.05300
C1642       C  0.27021967  0.98014753  0.55153801    -0.32700
C1643       C  0.27869786  0.95305808  0.56515593     0.36600
C1644       C  0.30239786  0.93511393  0.55399424    -0.05600
C1645       C  0.31794207  0.94561038  0.52978414    -0.32600
C1646       C  0.30889931  0.97235390  0.51572563     0.36500
H1647       H  0.25083147  0.99263241  0.55940363     0.16800
O1648       O  0.26335670  0.94420287  0.58920762    -0.60100
H1649       H  0.33638309  0.93244233  0.52094642     0.16900
O1650       O  0.32264325  0.98040587  0.49041070    -0.60200
H1651       H  0.31268475  0.96865595  0.47429673     0.43800
H1652       H  0.27247930  0.95536474  0.60617629     0.43800
C1653       C  0.42476307  0.84190884  0.52594234    -0.05300
C1654       C  0.45616490  0.83800987  0.52402837    -0.32700
C1655       C  0.46824635  0.82002153  0.50183259     0.36600
C1656       C  0.44879182  0.80520950  0.48149779    -0.05600
C1657       C  0.41772999  0.81179298  0.48123925    -0.32600
C1658       C  0.40564882  0.83037571  0.50303344     0.36500
H1659       H  0.47135774  0.84770829  0.54060598     0.16800
O1660       O  0.49902765  0.81560257  0.50103876    -0.60100
H1661       H  0.40253282  0.80056996  0.46569771     0.16900
O1662       O  0.37490520  0.83472435  0.50326429    -0.60200
H1663       H  0.37012275  0.85016666  0.48814177     0.43800
H1664       H  0.50482783  0.80342968  0.51865347     0.43800
C1665       C  0.41740626  0.83106276  0.68666547    -0.05300
C1666       C  0.41941086  0.80013724  0.68296029    -0.32700
C1667       C  0.43376197  0.78214456  0.70477634     0.36600
C1668       C  0.44800653  0.79509533  0.73021426    -0.05600
C1669       C  0.44420551  0.82584120  0.73478635    -0.32600
C1670       C  0.42870881  0.84367442  0.71344424     0.36500
H1671       H  0.41041541  0.78995558  0.66279268     0.16800
O1672       O  0.43512086  0.75191955  0.70028848    -0.60100
H1673       H  0.45485580  0.83636717  0.75400638     0.16900
O1674       O  0.42704075  0.87380843  0.71785931    -0.60200
H1675       H  0.41025907  0.87701394  0.73153280     0.43800
H1676       H  0.41772261  0.74413312  0.71077262     0.43800
C1677       C  0.30619841  0.79391159  0.55895527    -0.05300
C1678       C  0.32034244  0.78624477  0.53255956    -0.32700
C1679       C  0.31075984  0.76198626  0.51538439     0.36600
C1680       C  0.28717787  0.74436790  0.52483564    -0.05600
C1681       C  0.27500537  0.75006611  0.55249103    -0.32600
C1682       C  0.28417163  0.77468713  0.56949034     0.36500
H1683       H  0.33783222  0.79992787  0.52429924     0.16800
O1684       O  0.32342739  0.75649744  0.48858697    -0.60100
H1685       H  0.25657979  0.73684496  0.55984039     0.16900
O1686       O  0.27087120  0.78003993  0.59597018    -0.60200
H1687       H  0.25142752  0.79053095  0.59080235     0.43800
H1688       H  0.31477549  0.77206855  0.47509531     0.43800
C1689       C  0.99998617  0.24994823  0.37082145    -0.05300
C1690       C  0.00364800  0.22388631  0.38770631    -0.32700
C1691       C  0.00135543  0.22468553  0.41866074     0.36600
C1692       C  0.99571529  0.25193857  0.43343147    -0.05600
C1693       C  0.99324159  0.27814587  0.41659915    -0.32600
C1694       C  0.99513393  0.27729753  0.38565002     0.36500
H1695       H  0.00775897  0.20269732  0.37679647     0.16800
O1696       O  0.00591456  0.19889383  0.43441701    -0.60100
H1697       H  0.98940434  0.29940814  0.42746634     0.16900
O1698       O  0.99334378  0.30346415  0.37014233    -0.60200
H1699       H  0.97172093  0.30981305  0.37003514     0.43800
H1700       H  0.98731852  0.18733086  0.43069456     0.43800
C1701       C  0.08823102  0.19619899  0.23207368    -0.05300
C1702       C  0.08246513  0.22704440  0.23311905    -0.32700
C1703       C  0.06411234  0.23967110  0.25457138     0.36600
C1704       C  0.05064904  0.22145913  0.27540683    -0.05600
C1705       C  0.05788258  0.19088103  0.27570386    -0.32600
C1706       C  0.07651693  0.17820481  0.25420798     0.36500
H1707       H  0.09143082  0.24139353  0.21658514     0.16800
O1708       O  0.05774316  0.26970640  0.25373156    -0.60100
H1709       H  0.04740108  0.17651629  0.29127646     0.16900
O1710       O  0.08128897  0.14797500  0.25379595    -0.60200
H1711       H  0.06499102  0.14020519  0.24039901     0.43800
H1712       H  0.07040455  0.27839662  0.27001947     0.43800
C1713       C  0.00141984  0.24291776  0.92620477    -0.05300
C1714       C  0.97324029  0.24600931  0.91083694    -0.32700
C1715       C  0.97096218  0.24616526  0.87971645     0.36600
C1716       C  0.99718130  0.24322402  0.86301285    -0.05600
C1717       C  0.02531716  0.23950714  0.87841799    -0.32600
C1718       C  0.02759639  0.23938014  0.90952938     0.36500
H1719       H  0.95275232  0.24870651  0.92304618     0.16800
O1720       O  0.94317710  0.25124087  0.86595476    -0.60100
H1721       H  0.04587548  0.23711767  0.86627740     0.16900
O1722       O  0.05573567  0.23782321  0.92335178    -0.60200
H1723       H  0.06290232  0.21690610  0.92078625     0.43800
H1724       H  0.93217991  0.23241464  0.86792151     0.43800
C1725       C  0.04196204  0.20602295  0.02669852    -0.05300
C1726       C  0.02988783  0.19260721  0.05158062    -0.32700
C1727       C  0.04883763  0.18042340  0.07418672     0.36600
C1728       C  0.08038071  0.18082388  0.07190110    -0.05600
C1729       C  0.09245255  0.19187523  0.04596235    -0.32600
C1730       C  0.07353308  0.20455523  0.02352016     0.36500
H1731       H  0.00565886  0.19314749  0.05430782     0.16800
O1732       O  0.03637231  0.16863904  0.09867456    -0.60100
H1733       H  0.11676759  0.19264713  0.04404685     0.16900
O1734       O  0.08631525  0.21820108  0.00019402    -0.60200
H1735       H  0.09065327  0.20196240  0.98588768     0.43800
H1736       H  0.03232977  0.18588063  0.11188613     0.43800
C1737       C  0.34947440  0.00105622  0.26384606    -0.05300
C1738       C  0.36408031  0.00671145  0.23744196    -0.32700
C1739       C  0.39587331  0.00469293  0.23608633     0.36600
C1740       C  0.41397817  0.99751457  0.26158348    -0.05600
C1741       C  0.39935284  0.99254746  0.28813116    -0.32600
C1742       C  0.36758778  0.99396313  0.28934778     0.36500
H1743       H  0.35074955  0.01222711  0.21756325     0.16800
O1744       O  0.40908842  0.01099642  0.20998980    -0.60100
H1745       H  0.41263461  0.98713708  0.30807100     0.16900
O1746       O  0.35447744  0.98949767  0.31591514    -0.60200
H1747       H  0.35675915  0.96782061  0.31968232     0.43800
H1748       H  0.40507200  0.99360173  0.19690216     0.43800
C1749       C  0.25213075  0.95044104  0.28575594    -0.05300
C1750       C  0.25625588  0.93969363  0.31473133    -0.32700
C1751       C  0.23689111  0.91827128  0.32559224     0.36600
C1752       C  0.21265959  0.90759213  0.30746727    -0.05600
C1753       C  0.21025034  0.91676191  0.27780820    -0.32600
C1754       C  0.22963394  0.93790664  0.26696610     0.36500
H1755       H  0.27357664  0.94896932  0.32941629     0.16800
O1756       O  0.24082070  0.90938616  0.35442683    -0.60100
H1757       H  0.19255628  0.90828155  0.26304801     0.16900
O1758       O  0.22636292  0.94640249  0.23789739    -0.60200
H1759       H  0.20728679  0.95844601  0.23646935     0.43800
H1760       H  0.25508654  0.89204874  0.35386767     0.43800
C1761       C  0.24608522  0.05001610  0.23981510    -0.05300
C1762       C  0.24713417  0.05508073  0.20932208    -0.32700
C1763       C  0.22320622  0.07020815  0.19405378     0.36600
C1764       C  0.19797667  0.08122136  0.20930721    -0.05600
C1765       C  0.19818762  0.07859676  0.24016271    -0.32600
C1766       C  0.22196657  0.06313821  0.25540626     0.36500
H1767       H  0.26528181  0.04517004  0.19686806     0.16800
O1768       O  0.22402895  0.07306677  0.16391838    -0.60100
H1769       H  0.17893431  0.08670948  0.25222093     0.16900
O1770       O  0.22035194  0.05908773  0.28531453    -0.60200
H1771       H  0.23015295  0.07669625  0.29448432     0.43800
H1772       H  0.21950984  0.05303997  0.15574086     0.43800
C1773       C  0.25886737  0.92223984  0.00256925    -0.05300
C1774       C  0.23071596  0.90841705  0.99903291    -0.32700
C1775       C  0.22854702  0.87722184  0.99836731     0.36600
C1776       C  0.25478532  0.85884442  0.00133191    -0.05600
C1777       C  0.28291886  0.87253230  0.00535433    -0.32600
C1778       C  0.28511009  0.90375807  0.00606526     0.36500
H1779       H  0.21014603  0.92184274  0.99644140     0.16800
O1780       O  0.20048009  0.86487447  0.99607476    -0.60100
H1781       H  0.30339931  0.85892854  0.00776859     0.16900
O1782       O  0.31306128  0.91587954  0.01069875    -0.60200
H1783       H  0.31530954  0.91890764  0.03240530     0.43800
H1784       H  0.19333996  0.86799053  0.97525098     0.43800
C1785       C  0.21831046  0.02345559  0.03607205    -0.05300
C1786       C  0.21026097  0.01397799  0.06400895    -0.32700
C1787       C  0.19376936  0.03258409  0.08261511     0.36600
C1788       C  0.18572519  0.06220800  0.07413337    -0.05600
C1789       C  0.19203636  0.07118488  0.04544083    -0.32600
C1790       C  0.20786216  0.05201248  0.02631792     0.36500
H1791       H  0.21768836  0.99229347  0.07213055     0.16800
O1792       O  0.18642257  0.02152780  0.10953219    -0.60100
H1793       H  0.18509574  0.09322038  0.03788466     0.16900
O1794       O  0.21224702  0.06102120  0.99787751    -0.60200
H1795       H  0.22491803  0.07892871  0.99967523     0.43800
H1796       H  0.16623663  0.01270858  0.10611185     0.43800
C1797       C  0.22989810  0.42201167  0.99655223    -0.05300
C1798       C  0.22249762  0.40397543  0.97192317    -0.32700
C1799       C  0.22368128  0.37276373  0.97382879     0.36600
C1800       C  0.23247569  0.35870399  0.00074621    -0.05600
C1801       C  0.23795510  0.37665263  0.02589249    -0.32600
C1802       C  0.23655017  0.40794147  0.02401698     0.36500
H1803       H  0.21673672  0.41404754  0.95070366     0.16800
O1804       O  0.21566012  0.35608847  0.94932156    -0.60100
H1805       H  0.24430347  0.36640589  0.04689916     0.16900
O1806       O  0.24195171  0.42449622  0.04918761    -0.60200
H1807       H  0.22165389  0.42997742  0.05637098     0.43800
H1808       H  0.23159262  0.35931364  0.93491606     0.43800
C1809       C  0.19386822  0.21424094  0.08486171    -0.05300
C1810       C  0.19355028  0.20808491  0.05450714    -0.32700
C1811       C  0.20416596  0.22880498  0.03461052     0.36600
C1812       C  0.21671968  0.25592317  0.04495763    -0.05600
C1813       C  0.21724132  0.26194974  0.07545236    -0.32600
C1814       C  0.20574471  0.24150741  0.09527478     0.36500
H1815       H  0.18337419  0.18789330  0.04597307     0.16800
O1816       O  0.20130857  0.22264137  0.00489339    -0.60100
H1817       H  0.22680811  0.28241929  0.08397309     0.16900
O1818       O  0.20573549  0.24860997  0.12482190    -0.60200
H1819       H  0.22448863  0.23916922  0.13349730     0.43800
H1820       H  0.18138918  0.23141848  0.99842520     0.43800
C1821       C  0.91263498  0.99940910  0.25752269    -0.05300
C1822       C  0.89630163  0.99326812  0.23100364    -0.32700
C1823       C  0.86455228  0.99114430  0.23042045     0.36600
C1824       C  0.84849005  0.99517452  0.25668502    -0.05600
C1825       C  0.86504507  0.00200936  0.28298263    -0.32600
C1826       C  0.89664533  0.00405238  0.28352392     0.36500
H1827       H  0.90826854  0.98948104  0.21081101     0.16800
O1828       O  0.84954857  0.98520587  0.20401974    -0.60100
H1829       H  0.85351130  0.00523482  0.30349634     0.16900
O1830       O  0.91178668  0.01107802  0.30959362    -0.60200
H1831       H  0.91375976  0.99214449  0.32070689     0.43800
H1832       H  0.84150998  0.00477108  0.19690005     0.43800
C1833       C  0.00983807  0.94872166  0.29087507    -0.05300
C1834       C  0.01707653  0.94774370  0.32138496    -0.32700
C1835       C  0.03854120  0.92676317  0.33274768     0.36600
C1836       C  0.05329690  0.90707292  0.31332614    -0.05600
C1837       C  0.04492921  0.90745287  0.28307871    -0.32600
C1838       C  0.02304663  0.92763016  0.27194881     0.36500
H1839       H  0.00722516  0.96412103  0.33609796     0.16800
O1840       O  0.04615142  0.92683140  0.36242234    -0.60100
H1841       H  0.05597697  0.89244386  0.26781632     0.16900
O1842       O  0.01606489  0.92786740  0.24212825    -0.60200
H1843       H  0.99716045  0.91652358  0.23969464     0.43800
H1844       H  0.06375708  0.94003329  0.36466555     0.43800
C1845       C  0.01501826  0.03881331  0.23037798    -0.05300
C1846       C  0.03863532  0.05294742  0.24631026    -0.32700
C1847       C  0.06144327  0.06767397  0.23176088     0.36600
C1848       C  0.06104312  0.06818566  0.20060637    -0.05600
C1849       C  0.03690574  0.05490241  0.18466743    -0.32600
C1850       C  0.01402745  0.04038733  0.19927719     0.36500
H1851       H  0.04016853  0.05135628  0.27022254     0.16800
O1852       O  0.08567684  0.07875323  0.24790419    -0.60100
H1853       H  0.03618534  0.05513504  0.16069811     0.16900
O1854       O  0.99179164  0.02637500  0.18288118    -0.60200
H1855       H  0.99993646  0.00596126  0.17928052     0.43800
H1856       H  0.07713402  0.09096721  0.26406653     0.43800
C1857       C  0.57968289  0.97616238  0.76882355    -0.05300
C1858       C  0.59484256  0.94880912  0.76420574    -0.32700
C1859       C  0.62608955  0.94744545  0.75988714     0.36600
C1860       C  0.64301468  0.97379071  0.76009735    -0.05600
C1861       C  0.62770842  0.00116499  0.76457487    -0.32600
C1862       C  0.59645601  0.00248035  0.76901303     0.36500
H1863       H  0.58234191  0.92834538  0.76385686     0.16800
O1864       O  0.63969518  0.92020236  0.75494884    -0.60100
H1865       H  0.64004273  0.02171410  0.76490794     0.16900
O1866       O  0.58224202  0.02974662  0.77207300    -0.60200
H1867       H  0.58771253  0.03648511  0.79247421     0.43800
H1868       H  0.63885949  0.91753212  0.73315276     0.43800
C1869       C  0.47431761  0.95709234  0.72794923    -0.05300
C1870       C  0.48050754  0.96386198  0.69859275    -0.32700
C1871       C  0.45977411  0.95707921  0.67559460     0.36600
C1872       C  0.43223071  0.94386941  0.68186525    -0.05600
C1873       C  0.42490262  0.93946840  0.71122996    -0.32600
C1874       C  0.44614270  0.94471159  0.73410674     0.36500
H1875       H  0.50143747  0.97436758  0.69344855     0.16800
O1876       O  0.46703887  0.96236466  0.64693074    -0.60100
H1877       H  0.40382473  0.92915412  0.71624940     0.16900
O1878       O  0.43952875  0.93660847  0.76228898    -0.60200
H1879       H  0.44982978  0.91697114  0.76541018     0.43800
H1880       H  0.45816597  0.98235557  0.64232880     0.43800
C1881       C  0.49363593  0.24838266  0.67787544    -0.05300
C1882       C  0.52208399  0.24777746  0.66476784    -0.32700
C1883       C  0.52468930  0.24893320  0.63378447     0.36600
C1884       C  0.49860407  0.25115151  0.61488031    -0.05600
C1885       C  0.47018884  0.25116315  0.62788008    -0.32600
C1886       C  0.46754212  0.24952369  0.65880774     0.36500
H1887       H  0.54257109  0.24673547  0.67865087     0.16800
O1888       O  0.55291898  0.24981892  0.62236016    -0.60100
H1889       H  0.44976044  0.25275910  0.61393746     0.16900
O1890       O  0.43925512  0.25102412  0.67018321    -0.60200
H1891       H  0.43049672  0.23121061  0.66614320     0.43800
H1892       H  0.56107823  0.22909137  0.62357299     0.43800
C1893       C  0.51152207  0.24242061  0.11317187    -0.05300
C1894       C  0.54101545  0.24783461  0.12431764    -0.32700
C1895       C  0.54664976  0.25462494  0.15423375     0.36600
C1896       C  0.52257320  0.25593214  0.17371260    -0.05600
C1897       C  0.49344790  0.24844283  0.16298039    -0.32600
C1898       C  0.48777224  0.24191736  0.13302179     0.36500
H1899       H  0.55970055  0.24791369  0.10952182     0.16800
O1900       O  0.57533216  0.26208695  0.16370291    -0.60100
H1901       H  0.47477203  0.24832917  0.17778129     0.16900
O1902       O  0.45867124  0.23652250  0.12326481    -0.60200
H1903       H  0.45027869  0.25605301  0.11641511     0.43800
H1904       H  0.58731891  0.24314038  0.16376083     0.43800
C1905       C  0.32616337  0.06144366  0.93113167    -0.05300
C1906       C  0.32895661  0.06601744  0.96173912    -0.32700
C1907       C  0.31915601  0.04451164  0.98121946     0.36600
C1908       C  0.30495435  0.01864159  0.97004726    -0.05600
C1909       C  0.30478330  0.01295514  0.93949737    -0.32600
C1910       C  0.31530958  0.03414575  0.92006811     0.36500
H1911       H  0.33776045  0.08673247  0.97050990     0.16800
O1912       O  0.32137762  0.05000667  0.01109437    -0.60100
H1913       H  0.29395673  0.99334717  0.93039998     0.16900
O1914       O  0.31240994  0.02907073  0.89016768    -0.60200
H1915       H  0.29203286  0.03711170  0.88417836     0.43800
H1916       H  0.34228330  0.04368547  0.01725808     0.43800
C1917       C  0.30611947  0.22194953  0.92206632    -0.05300
C1918       C  0.27450013  0.22194860  0.92362548    -0.32700
C1919       C  0.25933941  0.24342809  0.94013204     0.36600
C1920       C  0.27577048  0.26512724  0.95601801    -0.05600
C1921       C  0.30693479  0.26723616  0.95208279    -0.32600
C1922       C  0.32211610  0.24602468  0.93469384     0.36500
H1923       H  0.26153031  0.20430742  0.91319640     0.16800
O1924       O  0.22866012  0.24149276  0.94275756    -0.60100
H1925       H  0.31976189  0.28405206  0.96399838     0.16900
O1926       O  0.35276909  0.24771342  0.93225246    -0.60200
H1927       H  0.35547692  0.26044904  0.91478854     0.43800
H1928       H  0.21960547  0.25498454  0.92741463     0.43800
C1929       C  0.43502385  0.17490866  0.96763064    -0.05300
C1930       C  0.46238239  0.16310828  0.98013095    -0.32700
C1931       C  0.47545553  0.17523262  0.00600721     0.36600
C1932       C  0.46118891  0.19940681  0.02007090    -0.05600
C1933       C  0.43252780  0.20927104  0.00951411    -0.32600
C1934       C  0.41943974  0.19733220  0.98345738     0.36500
H1935       H  0.47473459  0.14549897  0.96898443     0.16800
O1936       O  0.50392803  0.16578369  0.01531212    -0.60100
H1937       H  0.42162517  0.22832440  0.01984340     0.16900
O1938       O  0.39219192  0.20886036  0.97300726    -0.60200
H1939       H  0.39708350  0.22821032  0.96417858     0.43800
H1940       H  0.50073566  0.14848154  0.02821270     0.43800
C1941       C  0.28981461  0.07365594  0.81646495    -0.05300
C1942       C  0.26185839  0.08506048  0.80518204    -0.32700
C1943       C  0.24063671  0.06638287  0.79121121     0.36600
C1944       C  0.24690344  0.03555678  0.78911820    -0.05600
C1945       C  0.27472476  0.02428929  0.80130883    -0.32600
C1946       C  0.29635577  0.04311020  0.81396717     0.36500
H1947       H  0.25641315  0.10860800  0.80735376     0.16800
O1948       O  0.21456072  0.07867029  0.77869656    -0.60100
H1949       H  0.27997137  0.00061495  0.80082372     0.16900
O1950       O  0.32304660  0.03114195  0.82546817    -0.60200
H1951       H  0.33703951  0.03094303  0.80885280     0.43800
H1952       H  0.20161931  0.08371328  0.79553669     0.43800
C1953       C  0.44310623  0.05867601  0.83595253    -0.05300
C1954       C  0.44059543  0.02858018  0.84328779    -0.32700
C1955       C  0.46211668  0.00749595  0.83400175     0.36600
C1956       C  0.48646421  0.01645217  0.81713284    -0.05600
C1957       C  0.48973624  0.04659369  0.81109173    -0.32600
C1958       C  0.46828356  0.06760959  0.82008978     0.36500
H1959       H  0.42180832  0.02136351  0.85590538     0.16800
O1960       O  0.45798778  0.97791584  0.83952668    -0.60100
H1961       H  0.50756633  0.05359715  0.79708595     0.16900
O1962       O  0.47099190  0.09654947  0.81126679    -0.60200
H1963       H  0.48689404  0.10496446  0.82470743     0.43800
H1964       H  0.47192989  0.97312755  0.85660378     0.43800
C1965       C  0.42634601  0.19043148  0.82679893    -0.05300
C1966       C  0.45012826  0.17695359  0.81132825    -0.32700
C1967       C  0.46099439  0.18977020  0.78582577     0.36600
C1968       C  0.44876524  0.21706728  0.77551002    -0.05600
C1969       C  0.42388530  0.22989816  0.78990366    -0.32600
C1970       C  0.41220189  0.21640574  0.81496493     0.36500
H1971       H  0.46097358  0.15662716  0.81949247     0.16800
O1972       O  0.48569684  0.17698663  0.77289173    -0.60100
H1973       H  0.41471055  0.25135215  0.78277169     0.16900
O1974       O  0.38866262  0.23007783  0.82900115    -0.60200
H1975       H  0.37012536  0.22243649  0.81884851     0.43800
H1976       H  0.47726172  0.16464886  0.75642415     0.43800
C1977       C  0.67565988  0.27687369  0.92748633    -0.05300
C1978       C  0.70552153  0.27166921  0.91927276    -0.32700
C1979       C  0.72325100  0.24912822  0.93263052     0.36600
C1980       C  0.71130158  0.23181169  0.95499735    -0.05600
C1981       C  0.68060900  0.23514976  0.96133494    -0.32600
C1982       C  0.66269282  0.25767034  0.94765964     0.36500
H1983       H  0.71567961  0.28633096  0.90373379     0.16800
O1984       O  0.75328898  0.24657338  0.92630805    -0.60100
H1985       H  0.67138388  0.22232753  0.97892314     0.16900
O1986       O  0.63355854  0.26245514  0.95615555    -0.60200
H1987       H  0.63514137  0.27584679  0.97366091     0.43800
H1988       H  0.75520344  0.22785050  0.91469968     0.43800
C1989       C  0.55067703  0.31558919  0.96592306    -0.05300
C1990       C  0.53620919  0.32966194  0.98960972    -0.32700
C1991       C  0.52579713  0.31284695  0.01296839     0.36600
C1992       C  0.52961171  0.28170389  0.01246119    -0.05600
C1993       C  0.54532383  0.26792711  0.98961936    -0.32600
C1994       C  0.55543331  0.28444334  0.96631452     0.36500
H1995       H  0.53267435  0.35361084  0.98984263     0.16800
O1996       O  0.51029436  0.32673747  0.03505546    -0.60100
H1997       H  0.54829189  0.24389885  0.98904428     0.16900
O1998       O  0.56864807  0.26963304  0.94333364    -0.60200
H1999       H  0.55180387  0.26531749  0.92895453     0.43800
H2000       H  0.52610127  0.33339848  0.04960831     0.43800
C2001       C  0.69376339  0.42677017  0.83287920    -0.05300
C2002       C  0.68832206  0.42884004  0.80231241    -0.32700
C2003       C  0.70606209  0.44699713  0.78541920     0.36600
C2004       C  0.72927520  0.46377023  0.79929876    -0.05600
C2005       C  0.73527457  0.46096088  0.82972953    -0.32600
C2006       C  0.71789562  0.44246435  0.84651974     0.36500
H2007       H  0.67048835  0.41616935  0.79146161     0.16800
O2008       O  0.70122373  0.44759346  0.75526307    -0.60100
H2009       H  0.75288320  0.47383440  0.84068435     0.16900
O2010       O  0.72364159  0.44115705  0.87652096    -0.60200
H2011       H  0.74104491  0.42698179  0.87920026     0.43800
H2012       H  0.68081790  0.45684805  0.75187701     0.43800
C2013       C  0.54850136  0.44220713  0.83070398    -0.05300
C2014       C  0.55456911  0.43572186  0.80121753    -0.32700
C2015       C  0.53438427  0.44501088  0.77844446     0.36600
C2016       C  0.50786811  0.46148509  0.78513707    -0.05600
C2017       C  0.50252916  0.46898303  0.81465879    -0.32600
C2018       C  0.52244663  0.45907214  0.83741127     0.36500
H2019       H  0.57375071  0.42143352  0.79598076     0.16800
O2020       O  0.53947842  0.43589955  0.74997287    -0.60100
H2021       H  0.48265993  0.48214582  0.82013714     0.16900
O2022       O  0.51588675  0.46514001  0.86627087    -0.60200
H2023       H  0.50090145  0.45015715  0.87148631     0.43800
H2024       H  0.55746363  0.44683104  0.74400799     0.43800
C2025       C  0.55286822  0.31767495  0.82987120    -0.05300
C2026       C  0.56589558  0.29103415  0.81920214    -0.32700
C2027       C  0.55370083  0.27703537  0.79365689     0.36600
C2028       C  0.52843094  0.28982182  0.77816847    -0.05600
C2029       C  0.51695028  0.31749303  0.78747855    -0.32600
C2030       C  0.52905322  0.33152485  0.81287174     0.36500
H2031       H  0.58449931  0.28023137  0.83151788     0.16800
O2032       O  0.56494599  0.24962166  0.78544985    -0.60100
H2033       H  0.49722219  0.32736459  0.77608765     0.16900
O2034       O  0.51667893  0.35837769  0.82140146    -0.60200
H2035       H  0.52709821  0.37349850  0.80989073     0.43800
H2036       H  0.58068309  0.25382137  0.77112153     0.43800
C2037       C  0.18083838  0.48065430  0.26192086    -0.05300
C2038       C  0.16213658  0.48422523  0.23618498    -0.32700
C2039       C  0.13040962  0.48426002  0.23733551     0.36600
C2040       C  0.11642298  0.48026148  0.26452390    -0.05600
C2041       C  0.13500903  0.47717646  0.29027846    -0.32600
C2042       C  0.16672936  0.47737110  0.28922047     0.36500
H2043       H  0.17214070  0.48683757  0.21490380     0.16800
O2044       O  0.11334052  0.48866569  0.21171890    -0.60100
H2045       H  0.12491005  0.47432461  0.31148573     0.16900
O2046       O  0.18363023  0.47583103  0.31526413    -0.60200
H2047       H  0.18117624  0.45533032  0.32267609     0.43800
H2048       H  0.10802925  0.51024098  0.21156522     0.43800
C2049       C  0.73602439  0.58462028  0.01104230    -0.05300
C2050       C  0.70940453  0.60029604  0.01860086    -0.32700
C2051       C  0.70849915  0.63167726  0.02125706     0.36600
C2052       C  0.73448932  0.64833034  0.01610144    -0.05600
C2053       C  0.76105659  0.63253823  0.00865638    -0.32600
C2054       C  0.76200046  0.60130464  0.00608201     0.36500
H2055       H  0.68911256  0.58815580  0.02258682     0.16800
O2056       O  0.68162383  0.64585459  0.02729864    -0.60100
H2057       H  0.78144033  0.64451064  0.00460454     0.16900
O2058       O  0.78806068  0.58745161  0.99700877    -0.60200
H2059       H  0.80302849  0.58967793  0.01373075     0.43800
H2060       H  0.67842636  0.64189850  0.04848323     0.43800
C2061       C  0.69000426  0.48675020  0.97577019    -0.05300
C2062       C  0.67864348  0.46151542  0.98953201    -0.32700
C2063       C  0.66490823  0.43881084  0.97283423     0.36600
C2064       C  0.66169707  0.44136324  0.94194460    -0.05600
C2065       C  0.67002326  0.46798393  0.92854607    -0.32600
C2066       C  0.68432554  0.49049168  0.94518326     0.36500
H2067       H  0.68260785  0.45832741  0.01310190     0.16800
O2068       O  0.65625983  0.41352262  0.98670209    -0.60100
H2069       H  0.66777149  0.47029900  0.90472198     0.16900
O2070       O  0.69580498  0.51424271  0.93081720    -0.60200
H2071       H  0.67885112  0.52903301  0.92908596     0.43800
H2072       H  0.63540336  0.41799254  0.99299235     0.43800
C2073       C  0.96840098  0.29108522  0.02191345    -0.05300
C2074       C  0.98132872  0.30414637  0.04770614    -0.32700
C2075       C  0.96327878  0.31855312  0.06843569     0.36600
C2076       C  0.93190103  0.32140689  0.06304093    -0.05600
C2077       C  0.91934434  0.31157822  0.03576567    -0.32600
C2078       C  0.93728889  0.29633155  0.01529515     0.36500
H2079       H  0.00534851  0.30140334  0.05283080     0.16800
O2080       O  0.97635337  0.32894228  0.09438300    -0.60100
H2081       H  0.89511597  0.31343149  0.03139759     0.16900
O2082       O  0.92356354  0.28400113  0.99056919    -0.60200
H2083       H  0.92051655  0.30067135  0.97643257     0.43800
H2084       H  0.97913293  0.31122841  0.10724751     0.43800
C2085       C  0.95148887  0.27310055  0.27041412    -0.05300
C2086       C  0.93855991  0.25594567  0.24734870    -0.32700
C2087       C  0.92241682  0.26944790  0.22373111     0.36600
C2088       C  0.91892712  0.30069505  0.22279967    -0.05600
C2089       C  0.92918684  0.31762527  0.24732148    -0.32600
C2090       C  0.94563571  0.30405478  0.27093097     0.36500
H2091       H  0.94260939  0.23205861  0.24677274     0.16800
O2092       O  0.91130152  0.25192956  0.20103735    -0.60100
H2093       H  0.92621278  0.34161640  0.24732407     0.16900
O2094       O  0.95773084  0.32147234  0.29322328    -0.60200
H2095       H  0.97787597  0.32708711  0.28648688     0.43800
H2096       H  0.88991212  0.24861305  0.20563790     0.43800
C2097       C  0.96302552  0.42267863  0.19484398    -0.05300
C2098       C  0.98514272  0.43993938  0.18196495    -0.32700
C2099       C  0.01035838  0.44979588  0.19873737     0.36600
C2100       C  0.01373281  0.44250662  0.22887617    -0.05600
C2101       C  0.99284751  0.42348901  0.24114116    -0.32600
C2102       C  0.96753968  0.41392382  0.22461790     0.36500
H2103       H  0.98244307  0.44659995  0.15902986     0.16800
O2104       O  0.03000106  0.46869861  0.18617786    -0.60100
H2105       H  0.99500686  0.41782544  0.26439656     0.16900
O2106       O  0.94653322  0.39751067  0.23842612    -0.60200
H2107       H  0.93159284  0.41229895  0.24586294     0.43800
H2108       H  0.04578017  0.45553771  0.17765086     0.43800
C2109       C  0.78680642  0.24881507  0.03525653    -0.05300
C2110       C  0.79753441  0.27500229  0.02251486    -0.32700
C2111       C  0.81094807  0.29729240  0.04005487     0.36600
C2112       C  0.81442494  0.29333813  0.07070941    -0.05600
C2113       C  0.80339817  0.26756074  0.08350642    -0.32600
C2114       C  0.78962910  0.24547355  0.06616036     0.36500
H2115       H  0.79583324  0.27806476  0.99877076     0.16800
O2116       O  0.82239937  0.32175562  0.02684733    -0.60100
H2117       H  0.80621797  0.26417643  0.10716975     0.16900
O2118       O  0.77804328  0.22129990  0.07978320    -0.60200
H2119       H  0.79587765  0.20902746  0.08657229     0.43800
H2120       H  0.80615261  0.33729341  0.02771652     0.43800
C2121       C  0.78599512  0.48406929  0.03495204    -0.05300
C2122       C  0.79737492  0.45781941  0.02138138    -0.32700
C2123       C  0.81647521  0.43745736  0.03714805     0.36600
C2124       C  0.82529899  0.44355710  0.06673568    -0.05600
C2125       C  0.81511611  0.47064195  0.07947269    -0.32600
C2126       C  0.79535849  0.49028573  0.06429373     0.36500
H2127       H  0.79077962  0.45264749  0.99864502     0.16800
O2128       O  0.82638948  0.41194944  0.02337451    -0.60100
H2129       H  0.82172076  0.47665123  0.10194633     0.16900
O2130       O  0.78336963  0.51417742  0.07932008    -0.60200
H2131       H  0.80011375  0.52835786  0.08203679     0.43800
H2132       H  0.80999342  0.39753073  0.02548759     0.43800
C2133       C  0.82146316  0.42248446  0.19295207    -0.05300
C2134       C  0.81302381  0.40994712  0.21963918    -0.32700
C2135       C  0.78757159  0.42112492  0.23412218     0.36600
C2136       C  0.76986780  0.44475210  0.22167410    -0.05600
C2137       C  0.77663411  0.45519033  0.19369582    -0.32600
C2138       C  0.80215093  0.44426957  0.17938576     0.36500
H2139       H  0.82717090  0.39276751  0.23016062     0.16800
O2140       O  0.78185823  0.41089878  0.26179096    -0.60100
H2141       H  0.76360628  0.47365267  0.18402528     0.16900
O2142       O  0.80854173  0.45579853  0.15248227    -0.60200
H2143       H  0.79610287  0.44431905  0.13790315     0.43800
H2144       H  0.76895811  0.39336837  0.25832100     0.43800
C2145       C  0.92031889  0.65731647  0.29392755    -0.05300
C2146       C  0.91367748  0.68726727  0.28704265    -0.32700
C2147       C  0.92712215  0.70097465  0.26333346     0.36600
C2148       C  0.94801888  0.68493745  0.24631905    -0.05600
C2149       C  0.95291363  0.65443682  0.25164146    -0.32600
C2150       C  0.93875928  0.64044947  0.27493365     0.36500
H2151       H  0.89886899  0.70045401  0.30079725     0.16800
O2152       O  0.92121525  0.73062964  0.25801213    -0.60100
H2153       H  0.96938841  0.64196164  0.23911097     0.16900
O2154       O  0.94532324  0.61102603  0.28050458    -0.60200
H2155       H  0.92975386  0.59990273  0.26892793     0.43800
H2156       H  0.93422525  0.74150813  0.27258166     0.43800
C2157       C  0.92618972  0.65647063  0.45516077    -0.05300
C2158       C  0.95752429  0.65630006  0.45175475    -0.32700
C2159       C  0.97646920  0.67172127  0.47170950     0.36600
C2160       C  0.96400265  0.68878738  0.49477455    -0.05600
C2161       C  0.93299341  0.68660025  0.49982822    -0.32600
C2162       C  0.91411397  0.67032565  0.48032601     0.36500
H2163       H  0.96716953  0.64529414  0.43278211     0.16800
O2164       O  0.00694550  0.67175087  0.46723303    -0.60100
H2165       H  0.92296767  0.69947531  0.51744673     0.16900
O2166       O  0.88350643  0.67101173  0.48416694    -0.60200
H2167       H  0.87959441  0.65288683  0.49566128     0.43800
H2168       H  0.01578881  0.65610009  0.48050872     0.43800
C2169       C  0.97094721  0.53557331  0.34523497    -0.05300
C2170       C  0.97896345  0.50544590  0.34992767    -0.32700
C2171       C  0.00278959  0.49188826  0.33497928     0.36600
C2172       C  0.01939391  0.50845005  0.31517017    -0.05600
C2173       C  0.01319804  0.53903726  0.31228936    -0.32600
C2174       C  0.98938146  0.55270210  0.32734293     0.36500
H2175       H  0.96577555  0.49181968  0.36403036     0.16800
O2176       O  0.00878458  0.46198625  0.33863466    -0.60100
H2177       H  0.02555922  0.55196346  0.29685570     0.16900
O2178       O  0.98373217  0.58257078  0.32349705    -0.60200
H2179       H  0.99514272  0.59243699  0.33997136     0.43800
H2180       H  0.99283017  0.45176842  0.32666998     0.43800
C2181       C  0.82499854  0.53817908  0.46083224    -0.05300
C2182       C  0.79401724  0.54372209  0.45576470    -0.32700
C2183       C  0.77259673  0.52501200  0.46753816     0.36600
C2184       C  0.78190196  0.50044483  0.48546724    -0.05600
C2185       C  0.81302224  0.49484835  0.49045434    -0.32600
C2186       C  0.83442985  0.51330502  0.47809437     0.36500
H2187       H  0.78636494  0.56159717  0.44113969     0.16800
O2188       O  0.74254760  0.52980469  0.45992953    -0.60100
H2189       H  0.82076479  0.47629267  0.50413925     0.16900
O2190       O  0.86463028  0.50636879  0.48229109    -0.60200
H2191       H  0.87126726  0.51793440  0.50004033     0.43800
H2192       H  0.73702569  0.54942050  0.46866785     0.43800
C2193       C  0.80458762  0.67912768  0.42908312    -0.05300
C2194       C  0.79531585  0.67280539  0.45753874    -0.32700
C2195       C  0.77816196  0.69380066  0.47320920     0.36600
C2196       C  0.76989045  0.72152055  0.46024524    -0.05600
C2197       C  0.77818980  0.72727355  0.43133556    -0.32600
C2198       C  0.79546241  0.70642024  0.41580250     0.36500
H2199       H  0.80278838  0.65229922  0.46829004     0.16800
O2200       O  0.77144331  0.68792973  0.50192775    -0.60100
H2201       H  0.77140774  0.74809959  0.42080326     0.16900
O2202       O  0.80330957  0.71283233  0.38751671    -0.60200
H2203       H  0.81985628  0.72729305  0.38976808     0.43800
H2204       H  0.75623853  0.67204520  0.50067659     0.43800
C2205       C  0.82970905  0.53945513  0.33027371    -0.05300
C2206       C  0.82261339  0.55092116  0.30196428    -0.32700
C2207       C  0.79685853  0.54162615  0.28569925     0.36600
C2208       C  0.77725680  0.52109142  0.29786064    -0.05600
C2209       C  0.78343503  0.51076178  0.32662114    -0.32600
C2210       C  0.80927648  0.51977797  0.34284407     0.36500
H2211       H  0.83766458  0.56626164  0.29193597     0.16800
O2212       O  0.79221338  0.55100536  0.25706771    -0.60100
H2213       H  0.76909452  0.49427533  0.33589871     0.16900
O2214       O  0.81460702  0.50862575  0.37076045    -0.60200
H2215       H  0.80416029  0.52277341  0.38411214     0.43800
H2216       H  0.77726719  0.56773912  0.25812970     0.43800
C2217       C  0.53386832  0.55374187  0.66391605    -0.05300
C2218       C  0.50589462  0.56429401  0.67428635    -0.32700
C2219       C  0.48643973  0.54547894  0.68815089     0.36600
C2220       C  0.49450332  0.51531430  0.69165137    -0.05600
C2221       C  0.52111882  0.50406854  0.67900221    -0.32600
C2222       C  0.54095852  0.52311058  0.66546839     0.36500
H2223       H  0.49949154  0.58769740  0.67309113     0.16800
O2224       O  0.46141447  0.55753005  0.70116858    -0.60100
H2225       H  0.52757938  0.48078078  0.68157246     0.16900
O2226       O  0.56744917  0.51169674  0.65479560    -0.60200
H2227       H  0.58206555  0.51158224  0.67198260     0.43800
H2228       H  0.44576793  0.55941217  0.68495830     0.43800
C2229       C  0.65312847  0.70971019  0.56329528    -0.05300
C2230       C  0.64963084  0.70548497  0.53270157    -0.32700
C2231       C  0.66479078  0.72340055  0.51343633     0.36600
C2232       C  0.68476885  0.74495937  0.52495866    -0.05600
C2233       C  0.68542837  0.75135532  0.55545571    -0.32600
C2234       C  0.66960405  0.73379276  0.57468632     0.36500
H2235       H  0.63653517  0.68713537  0.52384790     0.16800
O2236       O  0.66203281  0.71790969  0.48358441    -0.60100
H2237       H  0.70042326  0.76801493  0.56473498     0.16900
O2238       O  0.67253234  0.73862826  0.60463531    -0.60200
H2239       H  0.69098943  0.72717028  0.61119363     0.43800
H2240       H  0.64850911  0.73408709  0.47561268     0.43800
C2241       C  0.65565405  0.55075405  0.57055532    -0.05300
C2242       C  0.66304415  0.55400739  0.54094173    -0.32700
C2243       C  0.67810617  0.53104401  0.52582878     0.36600
C2244       C  0.68795290  0.50466482  0.54073580    -0.05600
C2245       C  0.67837065  0.50040797  0.56963234    -0.32600
C2246       C  0.66216919  0.52310555  0.58443679     0.36500
H2247       H  0.65801585  0.57488242  0.52973718     0.16800
O2248       O  0.68472610  0.53541440  0.49682668    -0.60100
H2249       H  0.68530656  0.48041735  0.58155624     0.16900
O2250       O  0.65500909  0.51893087  0.61331514    -0.60200
H2251       H  0.67340220  0.52435730  0.62517061     0.43800
H2252       H  0.66906913  0.52454223  0.48511617     0.43800
C2253       C  0.68620466  0.57462406  0.68460027    -0.05300
C2254       C  0.68051046  0.54473396  0.68985859    -0.32700
C2255       C  0.70022239  0.52773482  0.70796294     0.36600
C2256       C  0.72532144  0.54100717  0.72276553    -0.05600
C2257       C  0.73110209  0.57101233  0.71740924    -0.32600
C2258       C  0.71191026  0.58775261  0.69824154     0.36500
H2259       H  0.66132816  0.53413479  0.67893096     0.16800
O2260       O  0.69497175  0.49792723  0.71058273    -0.60100
H2261       H  0.75017181  0.58164093  0.72848022     0.16900
O2262       O  0.71831627  0.61696883  0.69320139    -0.60200
H2263       H  0.70709666  0.62853178  0.70818071     0.43800
H2264       H  0.70668299  0.48809416  0.69483991     0.43800
C2265       C  0.52769792  0.67971983  0.54182689    -0.05300
C2266       C  0.49770837  0.67333272  0.53274200    -0.32700
C2267       C  0.48358998  0.68776696  0.50841023     0.36600
C2268       C  0.49969952  0.70817655  0.49214866    -0.05600
C2269       C  0.52977605  0.71393981  0.50042945    -0.32600
C2270       C  0.54375214  0.70020230  0.52513613     0.36500
H2271       H  0.48475062  0.65783947  0.54506646     0.16800
O2272       O  0.45372055  0.68266929  0.50134155    -0.60100
H2273       H  0.54196532  0.73046812  0.48860565     0.16900
O2274       O  0.57303188  0.70724286  0.53276823    -0.60200
H2275       H  0.57151778  0.72583445  0.54465874     0.43800
H2276       H  0.44217583  0.69729460  0.51328311     0.43800
C2277       C  0.53121138  0.72142788  0.72981765    -0.05300
C2278       C  0.55372653  0.73269925  0.71200969    -0.32700
C2279       C  0.56355846  0.71688632  0.68688857     0.36600
C2280       C  0.55005989  0.68979427  0.67852761    -0.05600
C2281       C  0.52867477  0.67797298  0.69726333    -0.32600
C2282       C  0.51944905  0.69336111  0.72261702     0.36500
H2283       H  0.56232918  0.75471482  0.71654685     0.16800
O2284       O  0.58440609  0.72936077  0.66938574    -0.60100
H2285       H  0.51827611  0.65693868  0.69175879     0.16900
O2286       O  0.49660889  0.68214335  0.73855746    -0.60200
H2287       H  0.50689068  0.66906763  0.75357320     0.43800
H2288       H  0.60436270  0.72267668  0.67795908     0.43800
loop_ 
_geom_bond_atom_site_label_1 
_geom_bond_atom_site_label_2 
_geom_bond_distance 
_geom_bond_site_symmetry_2 
_ccdc_geom_bond_type 
O1           Ni7   1.892       .  S
O1           C22   1.262       .  A
O2          Ni25   1.890       .  S
O2           C11   1.265       .  A
O3           Ni7   1.887       .  S
O3          Ni25   1.884       .  S
O3          Ni19   1.923       .  S
O3           H26   0.966       .  S
C4           O21   1.286       .  A
C4           O13   1.281       .  A
C4         C2253   1.469       .  S
O5          Ni24   1.934       .  S
O5           C11   1.276       .  A
O6          Ni24   1.917       .  S
O6            C8   1.271       .  A
Ni7          O10   1.916       .  S
Ni7          O12   1.910       .  S
C8           O18   1.274       .  A
C8         C2241   1.491       .  S
O9          Ni25   1.927       .  S
O9           C15   1.279       .  A
O10          C15   1.277       .  A
C11        C2229   1.456       .  S
O12          C14   1.267       .  A
O13         Ni24   1.921       .  S
C14          O20   1.274       .  A
C14        C2280   1.499       .  S
C15        C2265   1.487       .  S
H16          O17   0.966       .  S
O17         Ni25   1.895       .  S
O17         Ni19   1.893       .  S
O17         Ni24   1.878       .  S
O18         Ni19   1.943       .  S
Ni19         O23   1.931       .  S
Ni19         O21   1.920       .  S
O20         Ni25   1.950       .  S
C22          O23   1.275       .  A
C22        C2217   1.478       .  S
O27         Ni33   1.905       .  S
O27          C48   1.265       .  A
O28         Ni51   1.909       .  S
O28          C37   1.268       .  A
O29         Ni33   1.920       .  S
O29         Ni51   1.925       .  S
O29         Ni45   1.938       .  S
O29          H52   0.966       .  S
C30          O47   1.281       .  A
C30          O39   1.275       .  A
C30        C2193   1.473       .  S
O31         Ni50   1.936       .  S
O31          C37   1.275       .  A
O32         Ni50   1.912       .  S
O32          C34   1.272       .  A
Ni33         O36   1.915       .  S
Ni33         O38   1.910       .  S
C34          O44   1.276       .  A
C34        C2157   1.476       .  S
O35         Ni51   1.915       .  S
O35          C41   1.268       .  A
O36          C41   1.269       .  A
C37        C2145   1.486       .  S
O38          C40   1.271       .  A
O39         Ni50   1.917       .  S
C40          O46   1.275       .  A
C40        C2205   1.488       .  S
C41        C2169   1.490       .  S
H42          O43   0.967       .  S
O43         Ni51   1.895       .  S
O43         Ni45   1.909       .  S
O43         Ni50   1.896       .  S
O44         Ni45   1.947       .  S
Ni45         O49   1.936       .  S
Ni45         O47   1.923       .  S
O46         Ni51   1.929       .  S
C48          O49   1.278       .  A
C48        C2181   1.481       .  S
O53         Ni59   1.897       .  S
O53          C74   1.266       .  A
O54         Ni77   1.897       .  S
O54          C63   1.266       .  A
O55         Ni59   1.886       .  S
O55         Ni77   1.896       .  S
O55         Ni71   1.922       .  S
O55          H78   0.966       .  S
C56          O73   1.286       .  A
C56          O65   1.278       .  A
C56        C2112   1.467       .  S
O57         Ni76   1.940       .  S
O57          C63   1.277       .  A
O58         Ni76   1.914       .  S
O58          C60   1.271       .  A
Ni59         O62   1.919       .  S
Ni59         O64   1.920       .  S
C60          O70   1.274       .  A
C60        C2076   1.478       .  S
O61         Ni77   1.924       .  S
O61          C67   1.275       .  A
O62          C67   1.274       .  A
C63        C2088   1.482       .  S
O64          C66   1.271       .  A
O65         Ni76   1.916       .  S
C66          O72   1.269       .  A
C66        C2133   1.485       .  S
C67        C2097   1.486       .  S
H68          O69   0.966       .  S
O69         Ni77   1.891       .  S
O69         Ni71   1.910       .  S
O69         Ni76   1.880       .  S
O70         Ni71   1.943       .  S
Ni71         O75   1.949       .  S
Ni71         O73   1.926       .  S
O72         Ni77   1.927       .  S
C74          O75   1.282       .  A
C74        C2124   1.495       .  S
C79        C2049   1.508       .  S
C79          C80   1.417   1_554  A
C79          C84   1.415       .  A
C80          C81   1.413       .  A
C80          H85   1.083       .  S
C81        C2061   1.488       .  S
C81          C82   1.398   1_556  A
C82          C83   1.394       .  A
C82          H86   1.084       .  S
C83        C2121   1.494       .  S
C83          C84   1.412       .  A
C84          H87   1.081       .  S
C88        C2040   1.500       .  S
C88          C89   1.418       .  A
C88          C93   1.417       .  A
C89          C90   1.408       .  A
C89          H94   1.083       .  S
C90        C2100   1.483       .  S
C90          C91   1.394       .  A
C91          C92   1.391       .  A
C91          H95   1.086   1_455  S
C92        C2172   1.478       .  S
C92          C93   1.405       .  A
C93          H96   1.083       .  S
O97        Ni103   1.902       .  S
O97         C118   1.267       .  A
O98        Ni121   1.897       .  S
O98         C107   1.268       .  A
O99        Ni103   1.895       .  S
O99        Ni121   1.902       .  S
O99        Ni115   1.923       .  S
O99         H122   0.967       .  S
C100        O117   1.283       .  A
C100        O109   1.279       .  A
C100       C2001   1.466       .  S
O101       Ni120   1.935       .  S
O101        C107   1.278       .  A
O102       Ni120   1.923       .  S
O102        C104   1.272       .  A
Ni103       O106   1.917       .  S
Ni103       O108   1.921       .  S
C104        O114   1.270       .  A
C104       C2064   1.480       .  S
O105       Ni121   1.900       .  S
O105        C111   1.267       .  A
O106        C111   1.270       .  A
C107       C1977   1.467       .  S
O108        C110   1.274       .  A
O109       Ni120   1.924       .  S
C110        O116   1.276       .  A
C110       C2025   1.490       .  S
C111       C1989   1.472       .  S
H112        O113   0.966       .  S
O113       Ni121   1.881       .  S
O113       Ni115   1.887       .  S
O113       Ni120   1.879       .  S
O114       Ni115   1.933       .  S
Ni115       O119   1.914       .  S
Ni115       O117   1.912       .  S
O116       Ni121   1.934       .  S
C118        O119   1.272       .  A
C118       C2013   1.457       .  S
O123       Ni129   1.895       .  S
O123        C144   1.262       .  A
O124       Ni147   1.906       .  S
O124        C133   1.269       .  A
O125       Ni129   1.881       .  S
O125       Ni147   1.884       .  S
O125       Ni141   1.914       .  S
O125        H148   0.966       .  S
C126        O143   1.283       .  A
C126        O135   1.277       .  A
C126       C1941   1.470       .  S
O127       Ni146   1.928       .  S
O127        C133   1.275       .  A
O128       Ni146   1.916       .  S
O128        C130   1.270       .  A
Ni129       O132   1.906       .  S
Ni129       O134   1.908       .  S
C130        O140   1.269       .  A
C130       C1905   1.471       .  S
O131       Ni147   1.943       .  S
O131        C137   1.284       .  A
O132        C137   1.276       .  A
C133       C1917   1.480       .  S
O134        C136   1.267       .  A
O135       Ni146   1.921       .  S
C136        O142   1.272       .  A
C136       C1965   1.493       .  S
C137       C1929   1.491       .  S
H138        O139   0.967       .  S
O139       Ni147   1.908       .  S
O139       Ni141   1.911       .  S
O139       Ni146   1.886       .  S
O140       Ni141   1.929       .  S
Ni141       O145   1.935       .  S
Ni141       O143   1.920       .  S
O142       Ni147   1.943       .  S
C144        O145   1.276       .  A
C144       C1953   1.476       .  S
C149       C1893   1.485       .  S
C149        C150   1.411       .  A
C149        C154   1.415       .  A
C150        C151   1.395       .  A
C150        H155   1.083       .  S
C151       C1992   1.468       .  S
C151        C152   1.390       .  A
C152        C153   1.391       .  A
C152        H156   1.086   1_554  S
C153       C1932   1.469       .  S
C153        C154   1.404       .  A
C154        H157   1.083       .  S
C158       C1881   1.513       .  S
C158        C159   1.420       .  A
C158        C163   1.424       .  A
C159        C160   1.408       .  A
C159        H164   1.083       .  S
C160       C2028   1.479       .  S
C160        C161   1.391       .  A
C161        C162   1.392       .  A
C161        H165   1.086       .  S
C162       C1968   1.485       .  S
C162        C163   1.414       .  A
C163        H166   1.082       .  S
C167       C1857   1.491       .  S
C167        C168   1.411       .  A
C167        C172   1.412       .  A
C168        C169   1.405       .  A
C168        H173   1.083   1_565  S
C169       C1956   1.469   1_565  S
C169        C170   1.388       .  A
C170        C171   1.390       .  A
C170        H174   1.085       .  S
C171       C1869   1.480       .  S
C171        C172   1.409       .  A
C172        H175   1.083       .  S
C176       C1821   1.490       .  S
C176        C177   1.416   1_565  A
C176        C181   1.409       .  A
C177        C178   1.414       .  A
C177        H182   1.083       .  S
C178       C1845   1.491   1_655  S
C178        C179   1.400   1_645  A
C179        C180   1.396   1_455  A
C179        H183   1.085       .  S
C180       C1833   1.475   1_655  S
C180        C181   1.400       .  A
C181        H184   1.084       .  S
C185       C1800   1.498       .  S
C185        C186   1.412   1_554  A
C185        C190   1.420       .  A
C186        C187   1.398       .  A
C186        H191   1.083       .  S
C187       C1920   1.475       .  S
C187        C188   1.394   1_556  A
C188        C189   1.397       .  A
C188        H192   1.085       .  S
C189       C1812   1.496       .  S
C189        C190   1.417       .  A
C190        H193   1.083       .  S
C194       C1773   1.506       .  S
C194        C195   1.414   1_554  A
C194        C199   1.416       .  A
C195        C196   1.409   1_565  A
C195        H200   1.083       .  S
C196       C1908   1.487       .  S
C196        C197   1.398   1_556  A
C197        C198   1.396       .  A
C197        H201   1.081       .  S
C198       C1785   1.498       .  S
C198        C199   1.414   1_545  A
C199        H202   1.082       .  S
C203       C1737   1.503       .  S
C203        C204   1.420       .  A
C203        C208   1.414   1_545  A
C204        C205   1.415       .  A
C204        H209   1.083       .  S
C205       C1761   1.495       .  S
C205        C206   1.400       .  A
C206        C207   1.400   1_545  A
C206        H210   1.084       .  S
C207       C1749   1.487       .  S
C207        C208   1.405       .  A
C208        H211   1.083       .  S
C212       C1713   1.502       .  S
C212        C213   1.415   1_455  A
C212        C217   1.416       .  A
C213        C214   1.408   1_556  A
C213        H218   1.082       .  S
C214       C2073   1.496       .  S
C214        C215   1.402   1_655  A
C215        C216   1.400       .  A
C215        H219   1.084       .  S
C216       C1725   1.493       .  S
C216        C217   1.410   1_554  A
C217        H220   1.082       .  S
C221       C1689   1.494   1_455  S
C221        C222   1.413   1_455  A
C221        C226   1.416       .  A
C222        C223   1.404       .  A
C222        H227   1.083       .  S
C223       C2085   1.482       .  S
C223        C224   1.396   1_655  A
C224        C225   1.397       .  A
C224        H228   1.085       .  S
C225       C1704   1.485       .  S
C225        C226   1.409       .  A
C226        H229   1.083       .  S
O230       Ni236   1.901       .  S
O230        C251   1.263       .  A
O231       Ni254   1.904       .  S
O231        C240   1.270       .  A
O232       Ni236   1.884       .  S
O232       Ni254   1.893       .  S
O232       Ni248   1.928       .  S
O232        H255   0.966       .  S
C233        O250   1.287       .  A
C233        O242   1.278       .  A
C233       C1809   1.481       .  S
O234       Ni253   1.942       .  S
O234        C240   1.278       .  A
O235       Ni253   1.921       .  S
O235        C237   1.272       .  A
Ni236       O239   1.923       .  S
Ni236       O241   1.911       .  S
C237        O247   1.272       .  A
C237       C1728   1.480       .  S
O238       Ni254   1.942       .  S
O238        C244   1.280       .  A
O239        C244   1.277       .  A
C240       C1701   1.487       .  S
O241        C243   1.268       .  A
O242       Ni253   1.924       .  S
C243        O249   1.276       .  A
C243       C1764   1.485       .  S
C244       C1848   1.487       .  S
H245        O246   0.966       .  S
O246       Ni254   1.910       .  S
O246       Ni248   1.915       .  S
O246       Ni253   1.891       .  S
O247       Ni248   1.936       .  S
Ni248       O252   1.950       .  S
Ni248       O250   1.936       .  S
O249       Ni254   1.948       .  S
C251        O252   1.280       .  A
C251       C1788   1.494       .  S
O256       Ni262   1.894       .  S
O256        C277   1.263       .  A
O257       Ni280   1.885       .  S
O257        C266   1.262       .  A
O258       Ni262   1.892       .  S
O258       Ni280   1.887       .  S
O258       Ni274   1.913       .  S
O258        H281   0.966       .  S
C259        O276   1.280       .  A
C259        O268   1.278       .  A
C259       C1872   1.461       .  S
O260       Ni279   1.949       .  S
O260        C266   1.280       .  A
O261       Ni279   1.925       .  S
O261        C263   1.274       .  A
Ni262       O265   1.913       .  S
Ni262       O267   1.920       .  S
C263        O273   1.275       .  A
C263       C1665   1.486       .  S
O264       Ni280   1.930       .  S
O264        C270   1.279       .  A
O265        C270   1.275       .  A
C266       C1653   1.482       .  S
O267        C269   1.269       .  A
O268       Ni279   1.921       .  S
C269        O275   1.267       .  A
C269       C1644   1.491       .  S
C270       C1677   1.489       .  S
H271        O272   0.967       .  S
O272       Ni280   1.895       .  S
O272       Ni274   1.910       .  S
O272       Ni279   1.886       .  S
O273       Ni274   1.945       .  S
Ni274       O278   1.940       .  S
Ni274       O276   1.911       .  S
O275       Ni280   1.925       .  S
C277        O278   1.278       .  A
C277       C1629   1.483       .  S
O282       Ni288   1.908       .  S
O282        C303   1.268       .  A
O283       Ni306   1.904       .  S
O283        C292   1.268       .  A
O284       Ni288   1.886       .  S
O284       Ni306   1.894       .  S
O284       Ni300   1.922       .  S
O284        H307   0.966       .  S
C285        O302   1.286       .  A
C285        O294   1.276       .  A
C285       C1605   1.479       .  S
O286       Ni305   1.941       .  S
O286        C292   1.277       .  A
O287       Ni305   1.901       .  S
O287        C289   1.272       .  A
Ni288       O291   1.925       .  S
Ni288       O293   1.916       .  S
C289        O299   1.278       .  A
C289       C1836   1.476       .  S
O290       Ni306   1.935       .  S
O290        C296   1.279       .  A
O291        C296   1.277       .  A
C292       C1752   1.492       .  S
O293        C295   1.269       .  A
O294       Ni305   1.912       .  S
C295        O301   1.271       .  A
C295       C1617   1.493       .  S
C296       C1581   1.496       .  S
H297        O298   0.966       .  S
O298       Ni306   1.902       .  S
O298       Ni300   1.915       .  S
O298       Ni305   1.883       .  S
O299       Ni300   1.946       .  S
Ni300       O304   1.960       .  S
Ni300       O302   1.939       .  S
O301       Ni306   1.933       .  S
C303        O304   1.285       .  A
C303       C1593   1.505       .  S
C308       C1569   1.515       .  S
C308        C309   1.416       .  A
C308        C313   1.420   1_655  A
C309        C310   1.406       .  A
C309        H314   1.083       .  S
C310       C2160   1.488       .  S
C310        C311   1.402       .  A
C311        C312   1.399   1_655  A
C311        H315   1.083       .  S
C312       C1596   1.506       .  S
C312        C313   1.418       .  A
C313        H316   1.080       .  S
C317       C1557   1.517       .  S
C317        C318   1.424       .  A
C317        C322   1.426       .  A
C318        C319   1.411       .  A
C318        H323   1.082       .  S
C319       C1584   1.483   1_545  S
C319        C320   1.389   1_545  A
C320        C321   1.387   1_565  A
C320        H324   1.087       .  S
C321       C1641   1.484   1_545  S
C321        C322   1.415       .  A
C322        H325   1.083       .  S
C326       C1545   1.504       .  S
C326        C327   1.416       .  A
C326        C331   1.422       .  A
C327        C328   1.402       .  A
C327        H332   1.083       .  S
C328       C1680   1.474       .  S
C328        C329   1.390       .  A
C329        C330   1.390       .  A
C329        H333   1.086       .  S
C330       C1620   1.480       .  S
C330        C331   1.412       .  A
C331        H334   1.082       .  S
C335       C1536   1.499       .  S
C335        C336   1.415       .  A
C335        C340   1.413   1_655  A
C336        C337   1.409       .  A
C336        H341   1.083       .  S
C337       C2148   1.479       .  S
C337        C338   1.397       .  A
C338        C339   1.395   1_655  A
C338        H342   1.084       .  S
C339       C1608   1.490       .  S
C339        C340   1.409       .  A
C340        H343   1.084       .  S
C344       C1524   1.506       .  S
C344        C345   1.415       .  A
C344        C349   1.418   1_565  A
C345        C346   1.404       .  A
C345        H350   1.082       .  S
C346       C1632   1.482       .  S
C346        C347   1.388       .  A
C347        C348   1.395   1_565  A
C347        H351   1.084       .  S
C348       C1944   1.493       .  S
C348        C349   1.415       .  A
C349        H352   1.081       .  S
C353       C1509   1.492       .  S
C353        C354   1.413       .  A
C353        C358   1.411   1_554  A
C354        C355   1.411       .  A
C354        H359   1.082       .  S
C355       C2109   1.489       .  S
C355        C356   1.394   1_554  A
C356        C357   1.394       .  A
C356        H360   1.085       .  S
C357       C1980   1.470       .  S
C357        C358   1.400       .  A
C358        H361   1.083       .  S
C362       C1497   1.527       .  S
C362        C363   1.428       .  A
C362        C367   1.425       .  A
C363        C364   1.417       .  A
C363        H368   1.082       .  S
C364       C2277   1.492       .  S
C364        C365   1.392       .  A
C365        C366   1.396       .  A
C365        H369   1.085       .  S
C366       C1668   1.497       .  S
C366        C367   1.415       .  A
C367        H370   1.081       .  S
C371       C1485   1.482       .  S
C371        C372   1.412       .  A
C371        C376   1.410       .  A
C372        C373   1.403       .  A
C372        H377   1.083       .  S
C373       C1656   1.475       .  S
C373        C374   1.394       .  A
C374        C375   1.390       .  A
C374        H378   1.085       .  S
C375       C2268   1.467       .  S
C375        C376   1.401       .  A
C376        H379   1.084       .  S
C380       C1473   1.480       .  S
C380        C381   1.404       .  A
C380        C385   1.407       .  A
C381        C382   1.398       .  A
C381        H386   1.084       .  S
C382       C2232   1.476       .  S
C382        C383   1.400       .  A
C383        C384   1.396       .  A
C383        H387   1.082       .  S
C384       C2196   1.481       .  S
C384        C385   1.408       .  A
C385        H388   1.083       .  S
C389       C1461   1.491       .  S
C389        C390   1.411       .  A
C389        C394   1.410       .  A
C390        C391   1.406       .  A
C390        H395   1.083       .  S
C391       C2220   1.475       .  S
C391        C392   1.392       .  A
C392        C393   1.391       .  A
C392        H396   1.084       .  S
C393       C2016   1.478       .  S
C393        C394   1.407       .  A
C394        H397   1.083       .  S
C398       C1449   1.491       .  S
C398        C399   1.408       .  A
C398        C403   1.413       .  A
C399        C400   1.400       .  A
C399        H404   1.083       .  S
C400       C2004   1.474       .  S
C400        C401   1.391       .  A
C401        C402   1.395       .  A
C401        H405   1.084       .  S
C402       C2256   1.484       .  S
C402        C403   1.410       .  A
C403        H406   1.083       .  S
C407       C1437   1.519       .  S
C407        C408   1.425       .  A
C407        C412   1.423       .  A
C408        C409   1.417       .  A
C408        H413   1.082       .  S
C409       C2244   1.504       .  S
C409        C410   1.398       .  A
C410        C411   1.395       .  A
C410        H414   1.084       .  S
C411       C2184   1.499       .  S
C411        C412   1.415       .  A
C412        H415   1.083       .  S
C416       C1425   1.511       .  S
C416        C417   1.422       .  A
C416        C421   1.422       .  A
C417        C418   1.410       .  A
C417        H422   1.083       .  S
C418       C2136   1.478       .  S
C418        C419   1.390       .  A
C419        C420   1.388       .  A
C419        H423   1.086       .  S
C420       C2208   1.478       .  S
C420        C421   1.409       .  A
C421        H424   1.082       .  S
O425       Ni431   1.932       .  S
O425        C446   1.275       .  A
O426       Ni449   1.939       .  S
O426        C435   1.281       .  A
O427       Ni431   1.878       .  S
O427       Ni449   1.901       .  S
O427       Ni443   1.890       .  S
O427        H450   0.965       .  S
C428        O445   1.270       .  A
C428        O437   1.270       .  A
C428       C1368   1.486       .  S
O429       Ni448   1.902       .  S
O429        C435   1.266       .  A
O430       Ni448   1.914       .  S
O430        C432   1.272       .  A
Ni431       O434   1.916       .  S
Ni431       O436   1.913       .  S
C432        O442   1.271       .  A
C432       C1377   1.478       .  S
O433       Ni449   1.939       .  S
O433        C439   1.289       .  A
O434        C439   1.278       .  A
C435       C1401   1.476       .  S
O436        C438   1.271       .  A
O437       Ni448   1.917       .  S
C438        O444   1.271       .  A
C438       C1389   1.468       .  S
C439       C1353   1.490       .  S
H440        O441   0.965       .  S
O441       Ni449   1.938       .  S
O441       Ni443   1.908       .  S
O441       Ni448   1.899       .  S
O442       Ni443   1.915       .  S
Ni443       O447   1.903       .  S
Ni443       O445   1.916       .  S
O444       Ni449   1.930       .  S
C446        O447   1.268       .  A
C446       C1413   1.475       .  S
O451       Ni457   1.928       .  S
O451        C472   1.276       .  A
O452       Ni475   1.938       .  S
O452        C461   1.274       .  A
O453       Ni457   1.892       .  S
O453       Ni475   1.905       .  S
O453       Ni469   1.917       .  S
O453        H476   0.966       .  S
C454        O471   1.283       .  A
C454        O463   1.279       .  A
C454       C1296   1.497       .  S
O455       Ni474   1.891       .  S
O455        C461   1.261       .  A
O456       Ni474   1.906       .  S
O456        C458   1.265       .  A
Ni457       O460   1.921       .  S
Ni457       O462   1.927       .  S
C458        O468   1.274       .  A
C458       C1281   1.488       .  S
O459       Ni475   1.942       .  S
O459        C465   1.289       .  A
O460        C465   1.278       .  A
C461       C1317   1.479       .  S
O462        C464   1.273       .  A
O463       Ni474   1.919       .  S
C464        O470   1.270       .  A
C464       C1305   1.487       .  S
C465       C1329   1.485       .  S
H466        O467   0.966       .  S
O467       Ni475   1.935       .  S
O467       Ni469   1.882       .  S
O467       Ni474   1.884       .  S
O468       Ni469   1.948       .  S
Ni469       O473   1.895       .  S
Ni469       O471   1.943       .  S
O470       Ni475   1.928       .  S
C472        O473   1.265       .  A
C472       C1344   1.469       .  S
C477       C1884   1.508       .  S
C477        C478   1.417       .  A
C477        C482   1.423       .  A
C478        C479   1.407       .  A
C478        H483   1.083       .  S
C479       C1269   1.485       .  S
C479        C480   1.393       .  A
C480        C481   1.395       .  A
C480        H484   1.083       .  S
C481       C1332   1.502       .  S
C481        C482   1.418       .  A
C482        H485   1.082       .  S
O486       Ni492   1.938       .  S
O486        C507   1.274       .  A
O487       Ni510   1.904       .  S
O487        C496   1.271       .  A
O488       Ni492   1.904       .  S
O488       Ni510   1.894       .  S
O488       Ni504   1.884       .  S
O488        H511   0.966       .  S
C489        O506   1.257       .  A
C489        O498   1.268       .  A
C489       C1224   1.491       .  S
O490       Ni509   1.899       .  S
O490        C496   1.267       .  A
O491       Ni509   1.895       .  S
O491        C493   1.269       .  A
Ni492       O495   1.919       .  S
Ni492       O497   1.922       .  S
C493        O503   1.281       .  A
C493       C1245   1.488       .  S
O494       Ni510   1.926       .  S
O494        C500   1.281       .  A
O495        C500   1.274       .  A
C496       C1209   1.463       .  S
O497        C499   1.273       .  A
O498       Ni509   1.939       .  S
C499        O505   1.271       .  A
C499       C1272   1.475       .  S
C500       C1233   1.470       .  S
H501        O502   0.966       .  S
O502       Ni510   1.947       .  S
O502       Ni504   1.901       .  S
O502       Ni509   1.922       .  S
O503       Ni504   1.958       .  S
Ni504       O508   1.871       .  S
Ni504       O506   1.895       .  S
O505       Ni510   1.932       .  S
C507        O508   1.257       .  A
C507       C1257   1.466       .  S
C512       C1428   1.520       .  S
C512        C513   1.420       .  A
C512        C517   1.428       .  A
C513        C514   1.405       .  A
C513        H518   1.082       .  S
C514       C1221   1.486       .  S
C514        C515   1.393       .  A
C515        C516   1.395       .  A
C515        H519   1.084       .  S
C516       C1197   1.500       .  S
C516        C517   1.418       .  A
C517        H520   1.081       .  S
C521       C1500   1.521       .  S
C521        C522   1.419       .  A
C521        C526   1.428       .  A
C522        C523   1.408       .  A
C522        H527   1.082       .  S
C523       C1185   1.490       .  S
C523        C524   1.400       .  A
C524        C525   1.396       .  A
C524        H528   1.085   1_556  S
C525       C1176   1.506   1_556  S
C525        C526   1.424       .  A
C526        H529   1.083       .  S
O530       Ni536   1.931       .  S
O530        C551   1.275       .  A
O531       Ni554   1.934       .  S
O531        C540   1.277       .  A
O532       Ni536   1.898       .  S
O532       Ni554   1.918       .  S
O532       Ni548   1.916       .  S
O532        H555   0.966       .  S
C533        O550   1.277       .  A
C533        O542   1.275       .  A
C533       C1149   1.496       .  S
O534       Ni553   1.916       .  S
O534        C540   1.269       .  A
O535       Ni553   1.906       .  S
O535        C537   1.270       .  A
Ni536       O539   1.927       .  S
Ni536       O541   1.915       .  S
C537        O547   1.276       .  A
C537       C1137   1.478       .  S
O538       Ni554   1.936       .  S
O538        C544   1.285       .  A
O539        C544   1.275       .  A
C540       C1125   1.490       .  S
O541        C543   1.271       .  A
O542       Ni553   1.924       .  S
C543        O549   1.266       .  A
C543       C1161   1.459       .  S
C544       C1200   1.482       .  S
H545        O546   0.965       .  S
O546       Ni554   1.928       .  S
O546       Ni548   1.903       .  S
O546       Ni553   1.894       .  S
O547       Ni548   1.937       .  S
Ni548       O552   1.920       .  S
Ni548       O550   1.933       .  S
O549       Ni554   1.914       .  S
C551        O552   1.272       .  A
C551       C1188   1.496       .  S
C556       C1548   1.507       .  S
C556        C557   1.421       .  A
C556        C561   1.413       .  A
C557        C558   1.417       .  A
C557        H562   1.082       .  S
C558       C1356   1.488       .  S
C558        C559   1.392       .  A
C559        C560   1.387       .  A
C559        H563   1.084       .  S
C560       C1212   1.475       .  S
C560        C561   1.401       .  A
C561        H564   1.082       .  S
O565       Ni571   1.939       .  S
O565        C586   1.275       .  A
O566       Ni589   1.977       .  S
O566        C575   1.289       .  A
O567       Ni571   1.885       .  S
O567       Ni589   1.929       .  S
O567       Ni583   1.905       .  S
O567        H590   0.966       .  S
C568        O585   1.279       .  A
C568        O577   1.277       .  A
C568       C1089   1.486       .  S
O569       Ni588   1.902       .  S
O569        C575   1.264       .  A
O570       Ni588   1.909       .  S
O570        C572   1.267       .  A
Ni571       O574   1.917       .  S
Ni571       O576   1.903       .  S
C572        O582   1.271       .  A
C572       C1116   1.487       .  S
O573       Ni589   1.917       .  S
O573        C579   1.281       .  A
O574        C579   1.276       .  A
C575       C1173   1.512       .  S
O576        C578   1.270       .  A
O577       Ni588   1.909       .  S
C578        O584   1.283       .  A
C578       C1065   1.485       .  S
C579       C1101   1.463       .  S
H580        O581   0.966       .  S
O581       Ni589   1.911       .  S
O581       Ni583   1.896       .  S
O581       Ni588   1.883       .  S
O582       Ni583   1.940       .  S
Ni583       O587   1.912       .  S
Ni583       O585   1.931       .  S
O584       Ni589   1.965       .  S
C586        O587   1.270       .  A
C586       C1077   1.495       .  S
C591       C2052   1.510       .  S
C591        C592   1.421       .  A
C591        C596   1.416   1_554  A
C592        C593   1.413       .  A
C592        H597   1.082       .  S
C593       C1113   1.482       .  S
C593        C594   1.393       .  A
C594        C595   1.393   1_554  A
C594        H598   1.085       .  S
C595       C1056   1.488       .  S
C595        C596   1.408       .  A
C596        H599   1.083       .  S
O600       Ni606   1.945       .  S
O600        C621   1.275       .  A
O601       Ni624   1.938       .  S
O601        C610   1.281       .  A
O602       Ni606   1.892       .  S
O602       Ni624   1.901       .  S
O602       Ni618   1.883       .  S
O602        H625   0.966       .  S
C603        O620   1.265       .  A
C603        O612   1.272       .  A
C603       C1044   1.493       .  S
O604       Ni623   1.911       .  S
O604        C610   1.269       .  A
O605       Ni623   1.920       .  S
O605        C607   1.273       .  A
Ni606       O609   1.920       .  S
Ni606       O611   1.913       .  S
C607        O617   1.272       .  A
C607       C1008   1.478       .  S
O608       Ni624   1.937       .  S
O608        C614   1.288       .  A
O609        C614   1.277       .  A
C610        C981   1.481       .  S
O611        C613   1.271       .  A
O612       Ni623   1.934       .  S
C613        O619   1.276       .  A
C613       C1017   1.486       .  S
C614        C993   1.479       .  S
H615        O616   0.966       .  S
O616       Ni624   1.942       .  S
O616       Ni618   1.918       .  S
O616       Ni623   1.916       .  S
O617       Ni618   1.922       .  S
Ni618       O622   1.889       .  S
Ni618       O620   1.906       .  S
O619       Ni624   1.949       .  S
C621        O622   1.260       .  A
C621       C1032   1.464       .  S
C626       C1860   1.498       .  S
C626        C627   1.419       .  A
C626        C631   1.413       .  A
C627        C628   1.409       .  A
C627        H632   1.083   1_565  S
C628       C1041   1.484   1_565  S
C628        C629   1.396       .  A
C629        C630   1.392       .  A
C629        H633   1.086       .  S
C630        C969   1.471       .  S
C630        C631   1.402       .  A
C631        H634   1.083       .  S
O635       Ni641   1.948       .  S
O635        C656   1.281       .  A
O636       Ni659   1.938       .  S
O636        C645   1.277       .  A
O637       Ni641   1.884       .  S
O637       Ni659   1.907       .  S
O637       Ni653   1.895       .  S
O637        H660   0.966       .  S
C638        O655   1.278       .  A
C638        O647   1.276       .  A
C638        C921   1.488       .  S
O639       Ni658   1.905       .  S
O639        C645   1.264       .  A
O640       Ni658   1.907       .  S
O640        C642   1.268       .  A
Ni641       O644   1.925       .  S
Ni641       O646   1.921       .  S
C642        O652   1.269       .  A
C642        C972   1.480       .  S
O643       Ni659   1.929       .  S
O643        C649   1.287       .  A
O644        C649   1.281       .  A
C645        C933   1.482       .  S
O646        C648   1.272       .  A
O647       Ni658   1.916       .  S
C648        O654   1.267       .  A
C648        C945   1.468       .  S
C649       C1053   1.486       .  S
H650        O651   0.966       .  S
O651       Ni659   1.921       .  S
O651       Ni653   1.890       .  S
O651       Ni658   1.888       .  S
O652       Ni653   1.927       .  S
Ni653       O657   1.895       .  S
Ni653       O655   1.931       .  S
O654       Ni659   1.922       .  S
C656        O657   1.267       .  A
C656        C957   1.490       .  S
O661       Ni667   1.942       .  S
O661        C682   1.277       .  A
O662       Ni685   1.944       .  S
O662        C671   1.275       .  A
O663       Ni667   1.896       .  S
O663       Ni685   1.920       .  S
O663       Ni679   1.913       .  S
O663        H686   0.966       .  S
C664        O681   1.281       .  A
C664        O673   1.275       .  A
C664        C873   1.480       .  S
O665       Ni684   1.892       .  S
O665        C671   1.260       .  A
O666       Ni684   1.909       .  S
O666        C668   1.267       .  A
Ni667       O670   1.927       .  S
Ni667       O672   1.918       .  S
C668        O678   1.270       .  A
C668        C909   1.479       .  S
O669       Ni685   1.922       .  S
O669        C675   1.282       .  A
O670        C675   1.278       .  A
C671        C900   1.487       .  S
O672        C674   1.272       .  A
O673       Ni684   1.909       .  S
C674        O680   1.270       .  A
C674        C861   1.475       .  S
C675        C885   1.476       .  S
H676        O677   0.966       .  S
O677       Ni685   1.920       .  S
O677       Ni679   1.892       .  S
O677       Ni684   1.892       .  S
O678       Ni679   1.935       .  S
Ni679       O683   1.903       .  S
Ni679       O681   1.937       .  S
O680       Ni685   1.928       .  S
C682        O683   1.268       .  A
C682        C849   1.485       .  S
C687       C1572   1.507   1_455  S
C687        C688   1.420       .  A
C687        C692   1.419   1_455  A
C688        C689   1.411       .  A
C688        H693   1.083       .  S
C689        C912   1.487       .  S
C689        C690   1.393       .  A
C690        C691   1.395   1_455  A
C690        H694   1.084       .  S
C691        C960   1.487       .  S
C691        C692   1.408       .  A
C692        H695   1.082       .  S
C696       C1452   1.489       .  S
C696        C697   1.413       .  A
C696        C701   1.410       .  A
C697        C698   1.411       .  A
C697        H702   1.083       .  S
C698        C897   1.487       .  S
C698        C699   1.398       .  A
C699        C700   1.394       .  A
C699        H703   1.085   1_655  S
C700       C1416   1.473       .  S
C700        C701   1.399       .  A
C701        H704   1.083       .  S
C705       C1464   1.493       .  S
C705        C706   1.416       .  A
C705        C710   1.410       .  A
C706        C707   1.412       .  A
C706        H711   1.082       .  S
C707        C888   1.495       .  S
C707        C708   1.396       .  A
C708        C709   1.395       .  A
C708        H712   1.084       .  S
C709       C1392   1.476       .  S
C709        C710   1.401       .  A
C710        H713   1.083       .  S
C714       C1476   1.479       .  S
C714        C715   1.408       .  A
C714        C719   1.410       .  A
C715        C716   1.397       .  A
C715        H720   1.084       .  S
C716       C1341   1.477       .  S
C716        C717   1.397       .  A
C717        C718   1.396       .  A
C717        H721   1.085   1_565  S
C718       C1029   1.479       .  S
C718        C719   1.404       .  A
C719        H722   1.083       .  S
C723       C1692   1.497       .  S
C723        C724   1.419       .  A
C723        C728   1.414   1_655  A
C724        C725   1.410       .  A
C724        H729   1.083       .  S
C725        C996   1.480       .  S
C725        C726   1.389       .  A
C726        C727   1.389   1_655  A
C726        H730   1.086       .  S
C727       C1380   1.468       .  S
C727        C728   1.404       .  A
C728        H731   1.083       .  S
C732       C1716   1.504       .  S
C732        C733   1.412   1_655  A
C732        C737   1.422       .  A
C733        C734   1.399       .  A
C733        H738   1.083       .  S
C734       C1365   1.471       .  S
C734        C735   1.393   1_455  A
C735        C736   1.399       .  A
C735        H739   1.085       .  S
C736        C984   1.499       .  S
C736        C737   1.417       .  A
C737        H740   1.081       .  S
C741       C1488   1.483       .  S
C741        C742   1.409       .  A
C741        C746   1.408       .  A
C742        C743   1.407       .  A
C742        H747   1.083       .  S
C743       C1164   1.478       .  S
C743        C744   1.396       .  A
C744        C745   1.390       .  A
C744        H748   1.085       .  S
C745       C1104   1.473       .  S
C745        C746   1.401       .  A
C746        H749   1.084       .  S
C750       C1824   1.503       .  S
C750        C751   1.420       .  A
C750        C755   1.415   1_565  A
C751        C752   1.414       .  A
C751        H756   1.082       .  S
C752       C1080   1.497       .  S
C752        C753   1.402       .  A
C753        C754   1.394   1_565  A
C753        H757   1.085       .  S
C754       C1293   1.481       .  S
C754        C755   1.402       .  A
C755        H758   1.083       .  S
C759       C1776   1.500   1_556  S
C759        C760   1.416       .  A
C759        C764   1.418   1_556  A
C760        C761   1.406       .  A
C760        H765   1.083       .  S
C761        C852   1.482       .  S
C761        C762   1.396       .  A
C762        C763   1.396   1_556  A
C762        H766   1.085       .  S
C763       C1152   1.484       .  S
C763        C764   1.410       .  A
C764        H767   1.083       .  S
C768       C1440   1.517       .  S
C768        C769   1.423       .  A
C768        C773   1.423       .  A
C769        C770   1.416       .  A
C769        H774   1.082       .  S
C770       C1020   1.506       .  S
C770        C771   1.399       .  A
C771        C772   1.396       .  A
C771        H775   1.082       .  S
C772       C1308   1.500       .  S
C772        C773   1.415       .  A
C773        H776   1.083       .  S
C777       C2037   1.506       .  S
C777        C778   1.415       .  A
C777        C782   1.416       .  A
C778        C779   1.408       .  A
C778        H783   1.082       .  S
C779       C1248   1.486       .  S
C779        C780   1.397       .  A
C780        C781   1.397       .  A
C780        H784   1.084       .  S
C781       C1128   1.492       .  S
C781        C782   1.412       .  A
C782        H785   1.082       .  S
C786       C1797   1.501       .  S
C786        C787   1.417       .  A
C786        C791   1.416   1_556  A
C787        C788   1.408       .  A
C787        H792   1.083       .  S
C788        C864   1.482       .  S
C788        C789   1.395       .  A
C789        C790   1.392   1_556  A
C789        H793   1.084       .  S
C790       C1140   1.483       .  S
C790        C791   1.408       .  A
C791        H794   1.083       .  S
C795       C1740   1.505       .  S
C795        C796   1.418       .  A
C795        C800   1.415   1_565  A
C796        C797   1.414       .  A
C796        H801   1.082       .  S
C797       C1068   1.503       .  S
C797        C798   1.406       .  A
C798        C799   1.400   1_565  A
C798        H802   1.083       .  S
C799       C1284   1.492       .  S
C799        C800   1.409       .  A
C800        H803   1.083       .  S
C804       C1896   1.485       .  S
C804        C805   1.408       .  A
C804        C809   1.408       .  A
C805        C806   1.407       .  A
C805        H810   1.082       .  S
C806       C1320   1.482       .  S
C806        C807   1.394       .  A
C807        C808   1.393       .  A
C807        H811   1.085       .  S
C808       C1260   1.461       .  S
C808        C809   1.396       .  A
C809        H812   1.084       .  S
C813       C1560   1.516       .  S
C813        C814   1.422       .  A
C813        C818   1.423       .  A
C814        C815   1.414       .  A
C814        H819   1.083       .  S
C815       C1236   1.489       .  S
C815        C816   1.391       .  A
C816        C817   1.389       .  A
C816        H820   1.084       .  S
C817       C1404   1.491       .  S
C817        C818   1.415       .  A
C818        H821   1.082       .  S
C822       C1533   1.497       .  S
C822        C823   1.415   1_655  A
C822        C827   1.416       .  A
C823        C824   1.408       .  A
C823        H828   1.083       .  S
C824        C876   1.481   1_554  S
C824        C825   1.392   1_454  A
C825        C826   1.393   1_556  A
C825        H829   1.085       .  S
C826        C948   1.480   1_554  S
C826        C827   1.406       .  A
C827        H830   1.083       .  S
C831       C1512   1.496       .  S
C831        C832   1.412       .  A
C831        C836   1.414       .  A
C832        C833   1.401       .  A
C832        H837   1.082       .  S
C833       C1092   1.468   1_545  S
C833        C834   1.392   1_545  A
C834        C835   1.393       .  A
C834        H838   1.085       .  S
C835        C936   1.479   1_554  S
C835        C836   1.409   1_565  A
C836        H839   1.083   1_554  S
C840       C1521   1.499       .  S
C840        C841   1.413       .  A
C840        C845   1.419   1_565  A
C841        C842   1.399       .  A
C841        H846   1.083       .  S
C842        C924   1.474   1_455  S
C842        C843   1.391   1_455  A
C843        C844   1.396   1_565  A
C843        H847   1.085       .  S
C844       C1005   1.486       .  S
C844        C845   1.414   1_655  A
C845        H848   1.083       .  S
C849        C850   1.403       .  A
C849        C854   1.413       .  A
C850        C851   1.398       .  A
C850        H855   1.084       .  S
C851        C852   1.409       .  A
C851        O856   1.372       .  S
C852        C853   1.403       .  A
C853        C854   1.406       .  A
C853        H857   1.084       .  S
C854        O858   1.369       .  S
O856        H860   0.992       .  S
O858        H859   0.992       .  S
C861        C862   1.399       .  A
C861        C866   1.410       .  A
C862        C863   1.401       .  A
C862        H867   1.084       .  S
C863        C864   1.413       .  A
C863        O868   1.373       .  S
C864        C865   1.400       .  A
C865        C866   1.402       .  A
C865        H869   1.084       .  S
C866        O870   1.369       .  S
O868        H872   0.992       .  S
O870        H871   0.992       .  S
C873        C874   1.408       .  A
C873        C878   1.407       .  A
C874        C875   1.401       .  A
C874        H879   1.084       .  S
C875        C876   1.405       .  A
C875        O880   1.371   1_556  S
C876        C877   1.408       .  A
C877        C878   1.400       .  A
C877        H881   1.084       .  S
C878        O882   1.371       .  S
O880        H884   0.991       .  S
O882        H883   0.992       .  S
C885        C886   1.407       .  A
C885        C890   1.402       .  A
C886        C887   1.405       .  A
C886        H891   1.084       .  S
C887        C888   1.411       .  A
C887        O892   1.372       .  S
C888        C889   1.412       .  A
C889        C890   1.397       .  A
C889        H893   1.083       .  S
C890        O894   1.371       .  S
O892        H896   0.992       .  S
O894        H895   0.992       .  S
C897        C898   1.411   1_655  A
C897        C902   1.405       .  A
C898        C899   1.404       .  A
C898        H903   1.084       .  S
C899        C900   1.407       .  A
C899        O904   1.371       .  S
C900        C901   1.412       .  A
C901        C902   1.396   1_455  A
C901        H905   1.083       .  S
C902        O906   1.372       .  S
O904        H908   0.992       .  S
O906        H907   0.992       .  S
C909        C910   1.401       .  A
C909        C914   1.411       .  A
C910        C911   1.406       .  A
C910        H915   1.083       .  S
C911        C912   1.417       .  A
C911        O916   1.372       .  S
C912        C913   1.401       .  A
C913        C914   1.399       .  A
C913        H917   1.084       .  S
C914        O918   1.371       .  S
O916        H920   0.992       .  S
O918        H919   0.992       .  S
C921        C922   1.409       .  A
C921        C926   1.414       .  A
C922        C923   1.400       .  A
C922        H927   1.083       .  S
C923        C924   1.404       .  A
C923        O928   1.371       .  S
C924        C925   1.401       .  A
C925        C926   1.398       .  A
C925        H929   1.084       .  S
C926        O930   1.370       .  S
O928        H932   0.992   1_655  S
O930        H931   0.992       .  S
C933        C934   1.403       .  A
C933        C938   1.416       .  A
C934        C935   1.403       .  A
C934        H939   1.083       .  S
C935        C936   1.412       .  A
C935        O940   1.372   1_556  S
C936        C937   1.398       .  A
C937        C938   1.396       .  A
C937        H941   1.084       .  S
C938        O942   1.372       .  S
O940        H944   0.992       .  S
O942        H943   0.992       .  S
C945        C946   1.398       .  A
C945        C950   1.408       .  A
C946        C947   1.403       .  A
C946        H951   1.083       .  S
C947        C948   1.414       .  A
C947        O952   1.373       .  S
C948        C949   1.401       .  A
C949        C950   1.398       .  A
C949        H953   1.084   1_556  S
C950        O954   1.371       .  S
O952        H956   0.992   1_655  S
O954        H955   0.992       .  S
C957        C958   1.403       .  A
C957        C962   1.417       .  A
C958        C959   1.397       .  A
C958        H963   1.083       .  S
C959        C960   1.412       .  A
C959        O964   1.374       .  S
C960        C961   1.402       .  A
C961        C962   1.406       .  A
C961        H965   1.083       .  S
C962        O966   1.370       .  S
O964        H968   0.992       .  S
O966        H967   0.992       .  S
C969        C970   1.405       .  A
C969        C974   1.403       .  A
C970        C971   1.406       .  A
C970        H975   1.083       .  S
C971        C972   1.410       .  A
C971        O976   1.371       .  S
C972        C973   1.406       .  A
C973        C974   1.393       .  A
C973        H977   1.083       .  S
C974        O978   1.372       .  S
O976        H980   0.992       .  S
O978        H979   0.992       .  S
C981        C982   1.408       .  A
C981        C986   1.404       .  A
C982        C983   1.409       .  A
C982        H987   1.084       .  S
C983        C984   1.410       .  A
C983        O988   1.372       .  S
C984        C985   1.412       .  A
C985        C986   1.402       .  A
C985        H989   1.083       .  S
C986        O990   1.371       .  S
O988        H992   0.992       .  S
O990        H991   0.991       .  S
C993        C994   1.400       .  A
C993        C998   1.416       .  A
C994        C995   1.403       .  A
C994        H999   1.083       .  S
C995        C996   1.414       .  A
C995       O1000   1.373       .  S
C996        C997   1.397       .  A
C997        C998   1.400       .  A
C997       H1001   1.084       .  S
C998       O1002   1.372       .  S
O1000      H1004   0.992   1_655  S
O1002      H1003   0.991       .  S
C1005      C1006   1.402       .  A
C1005      C1010   1.415       .  A
C1006      C1007   1.404       .  A
C1006      H1011   1.083       .  S
C1007      C1008   1.411       .  A
C1007      O1012   1.372       .  S
C1008      C1009   1.400       .  A
C1009      C1010   1.400       .  A
C1009      H1013   1.084       .  S
C1010      O1014   1.372   1_545  S
O1012      H1016   0.992       .  S
O1014      H1015   0.991       .  S
C1017      C1018   1.407       .  A
C1017      C1022   1.406       .  A
C1018      C1019   1.409       .  A
C1018      H1023   1.083       .  S
C1019      C1020   1.412       .  A
C1019      O1024   1.371       .  S
C1020      C1021   1.414       .  A
C1021      C1022   1.401       .  A
C1021      H1025   1.084       .  S
C1022      O1026   1.372       .  S
O1024      H1028   0.992       .  S
O1026      H1027   0.991       .  S
C1029      C1030   1.406   1_565  A
C1029      C1034   1.408       .  A
C1030      C1031   1.394       .  A
C1030      H1035   1.084       .  S
C1031      C1032   1.402       .  A
C1031      O1036   1.372       .  S
C1032      C1033   1.403       .  A
C1033      C1034   1.404   1_545  A
C1033      H1037   1.083       .  S
C1034      O1038   1.371       .  S
O1036      H1040   0.992       .  S
O1038      H1039   0.992       .  S
C1041      C1042   1.403       .  A
C1041      C1046   1.408       .  A
C1042      C1043   1.401       .  A
C1042      H1047   1.084   1_545  S
C1043      C1044   1.415       .  A
C1043      O1048   1.373       .  S
C1044      C1045   1.409       .  A
C1045      C1046   1.407       .  A
C1045      H1049   1.083       .  S
C1046      O1050   1.371       .  S
O1048      H1052   0.991       .  S
O1050      H1051   0.992       .  S
C1053      C1054   1.411       .  A
C1053      C1058   1.406       .  A
C1054      C1055   1.396       .  A
C1054      H1059   1.083       .  S
C1055      C1056   1.405       .  A
C1055      O1060   1.372       .  S
C1056      C1057   1.411       .  A
C1057      C1058   1.403       .  A
C1057      H1061   1.083       .  S
C1058      O1062   1.371       .  S
O1060      H1064   0.992       .  S
O1062      H1063   0.992       .  S
C1065      C1066   1.402       .  A
C1065      C1070   1.411       .  A
C1066      C1067   1.402       .  A
C1066      H1071   1.084       .  S
C1067      C1068   1.417       .  A
C1067      O1072   1.372       .  S
C1068      C1069   1.408       .  A
C1069      C1070   1.409       .  A
C1069      H1073   1.083       .  S
C1070      O1074   1.370       .  S
O1072      H1076   0.991   1_565  S
O1074      H1075   0.991       .  S
C1077      C1078   1.409       .  A
C1077      C1082   1.412       .  A
C1078      C1079   1.411       .  A
C1078      H1083   1.082       .  S
C1079      C1080   1.411       .  A
C1079      O1084   1.371       .  S
C1080      C1081   1.406       .  A
C1081      C1082   1.399       .  A
C1081      H1085   1.084       .  S
C1082      O1086   1.372       .  S
O1084      H1088   0.992       .  S
O1086      H1087   0.992       .  S
C1089      C1090   1.406       .  A
C1089      C1094   1.415       .  A
C1090      C1091   1.394       .  A
C1090      H1095   1.083       .  S
C1091      C1092   1.405       .  A
C1091      O1096   1.373       .  S
C1092      C1093   1.399       .  A
C1093      C1094   1.401       .  A
C1093      H1097   1.084       .  S
C1094      O1098   1.369       .  S
O1096      H1100   0.992   1_554  S
O1098      H1099   0.992       .  S
C1101      C1102   1.399       .  A
C1101      C1106   1.409       .  A
C1102      C1103   1.397       .  A
C1102      H1107   1.083       .  S
C1103      C1104   1.412       .  A
C1103      O1108   1.372       .  S
C1104      C1105   1.400       .  A
C1105      C1106   1.395       .  A
C1105      H1109   1.084       .  S
C1106      O1110   1.372       .  S
O1108      H1112   0.992       .  S
O1110      H1111   0.992       .  S
C1113      C1114   1.409       .  A
C1113      C1118   1.405       .  A
C1114      C1115   1.411       .  A
C1114      H1119   1.083       .  S
C1115      C1116   1.410       .  A
C1115      O1120   1.371       .  S
C1116      C1117   1.406       .  A
C1117      C1118   1.397       .  A
C1117      H1121   1.083       .  S
C1118      O1122   1.372       .  S
O1120      H1124   0.992       .  S
O1122      H1123   0.991       .  S
C1125      C1126   1.411       .  A
C1125      C1130   1.407       .  A
C1126      C1127   1.400       .  A
C1126      H1131   1.082       .  S
C1127      C1128   1.406       .  A
C1127      O1132   1.372       .  S
C1128      C1129   1.412       .  A
C1129      C1130   1.404       .  A
C1129      H1133   1.083       .  S
C1130      O1134   1.371       .  S
O1132      H1136   0.992       .  S
O1134      H1135   0.992       .  S
C1137      C1138   1.401       .  A
C1137      C1142   1.412       .  A
C1138      C1139   1.405       .  A
C1138      H1143   1.083       .  S
C1139      C1140   1.417       .  A
C1139      O1144   1.371   1_554  S
C1140      C1141   1.397       .  A
C1141      C1142   1.395       .  A
C1141      H1145   1.084       .  S
C1142      O1146   1.370       .  S
O1144      H1148   0.991       .  S
O1146      H1147   0.992       .  S
C1149      C1150   1.408       .  A
C1149      C1154   1.415       .  A
C1150      C1151   1.403       .  A
C1150      H1155   1.083       .  S
C1151      C1152   1.408       .  A
C1151      O1156   1.372       .  S
C1152      C1153   1.402       .  A
C1153      C1154   1.406       .  A
C1153      H1157   1.084       .  S
C1154      O1158   1.371       .  S
O1156      H1160   0.992       .  S
O1158      H1159   0.991       .  S
C1161      C1162   1.401       .  A
C1161      C1166   1.401       .  A
C1162      C1163   1.397       .  A
C1162      H1167   1.084       .  S
C1163      C1164   1.409       .  A
C1163      O1168   1.372       .  S
C1164      C1165   1.409       .  A
C1165      C1166   1.395       .  A
C1165      H1169   1.084       .  S
C1166      O1170   1.372       .  S
O1168      H1172   0.992       .  S
O1170      H1171   0.992       .  S
C1173      C1174   1.417       .  A
C1173      C1178   1.410       .  A
C1174      C1175   1.403       .  A
C1174      H1179   1.083       .  S
C1175      C1176   1.404       .  A
C1175      O1180   1.372   1_554  S
C1176      C1177   1.418       .  A
C1177      C1178   1.418       .  A
C1177      H1181   1.083       .  S
C1178      O1182   1.371       .  S
O1180      H1184   0.992       .  S
O1182      H1183   0.992       .  S
C1185      C1186   1.407       .  A
C1185      C1190   1.408   1_556  A
C1186      C1187   1.414   1_556  A
C1186      H1191   1.083       .  S
C1187      C1188   1.415       .  A
C1187      O1192   1.370   1_554  S
C1188      C1189   1.407       .  A
C1189      C1190   1.393       .  A
C1189      H1193   1.083       .  S
C1190      O1194   1.372       .  S
O1192      H1196   0.992       .  S
O1194      H1195   0.992   1_554  S
C1197      C1198   1.406       .  A
C1197      C1202   1.418       .  A
C1198      C1199   1.412       .  A
C1198      H1203   1.083       .  S
C1199      C1200   1.413       .  A
C1199      O1204   1.371       .  S
C1200      C1201   1.398       .  A
C1201      C1202   1.402       .  A
C1201      H1205   1.084       .  S
C1202      O1206   1.374       .  S
O1204      H1208   0.992       .  S
O1206      H1207   0.992       .  S
C1209      C1210   1.400       .  A
C1209      C1214   1.409       .  A
C1210      C1211   1.393       .  A
C1210      H1215   1.084       .  S
C1211      C1212   1.410       .  A
C1211      O1216   1.374       .  S
C1212      C1213   1.403       .  A
C1213      C1214   1.399       .  A
C1213      H1217   1.084       .  S
C1214      O1218   1.372       .  S
O1216      H1220   0.992       .  S
O1218      H1219   0.992       .  S
C1221      C1222   1.407       .  A
C1221      C1226   1.405       .  A
C1222      C1223   1.398       .  A
C1222      H1227   1.084       .  S
C1223      C1224   1.411       .  A
C1223      O1228   1.372       .  S
C1224      C1225   1.413       .  A
C1225      C1226   1.404       .  A
C1225      H1229   1.083       .  S
C1226      O1230   1.371       .  S
O1228      H1232   0.992       .  S
O1230      H1231   0.992       .  S
C1233      C1234   1.396       .  A
C1233      C1238   1.411       .  A
C1234      C1235   1.397       .  A
C1234      H1239   1.084       .  S
C1235      C1236   1.419       .  A
C1235      O1240   1.372       .  S
C1236      C1237   1.402       .  A
C1237      C1238   1.403       .  A
C1237      H1241   1.083       .  S
C1238      O1242   1.371       .  S
O1240      H1244   0.992       .  S
O1242      H1243   0.992       .  S
C1245      C1246   1.409       .  A
C1245      C1250   1.410       .  A
C1246      C1247   1.400       .  A
C1246      H1251   1.084       .  S
C1247      C1248   1.407       .  A
C1247      O1252   1.372       .  S
C1248      C1249   1.408       .  A
C1249      C1250   1.403       .  A
C1249      H1253   1.084       .  S
C1250      O1254   1.372       .  S
O1252      H1256   0.992       .  S
O1254      H1255   0.992       .  S
C1257      C1258   1.407       .  A
C1257      C1262   1.405       .  A
C1258      C1259   1.396       .  A
C1258      H1263   1.084       .  S
C1259      C1260   1.401       .  A
C1259      O1264   1.371       .  S
C1260      C1261   1.402       .  A
C1261      C1262   1.394       .  A
C1261      H1265   1.084       .  S
C1262      O1266   1.372       .  S
O1264      H1268   0.992       .  S
O1266      H1267   0.992       .  S
C1269      C1270   1.401       .  A
C1269      C1274   1.415       .  A
C1270      C1271   1.404       .  A
C1270      H1275   1.084       .  S
C1271      C1272   1.411       .  A
C1271      O1276   1.371       .  S
C1272      C1273   1.398       .  A
C1273      C1274   1.399       .  A
C1273      H1277   1.084       .  S
C1274      O1278   1.372       .  S
O1276      H1280   0.992       .  S
O1278      H1279   0.992       .  S
C1281      C1282   1.407       .  A
C1281      C1286   1.408       .  A
C1282      C1283   1.403       .  A
C1282      H1287   1.084       .  S
C1283      C1284   1.407       .  A
C1283      O1288   1.371       .  S
C1284      C1285   1.410       .  A
C1285      C1286   1.409       .  A
C1285      H1289   1.083   1_545  S
C1286      O1290   1.371       .  S
O1288      H1292   0.992       .  S
O1290      H1291   0.992       .  S
C1293      C1294   1.403       .  A
C1293      C1298   1.403       .  A
C1294      C1295   1.403       .  A
C1294      H1299   1.084   1_545  S
C1295      C1296   1.415       .  A
C1295      O1300   1.371       .  S
C1296      C1297   1.412       .  A
C1297      C1298   1.403       .  A
C1297      H1301   1.083       .  S
C1298      O1302   1.371       .  S
O1300      H1304   0.992       .  S
O1302      H1303   0.992       .  S
C1305      C1306   1.400       .  A
C1305      C1310   1.414       .  A
C1306      C1307   1.408       .  A
C1306      H1311   1.084       .  S
C1307      C1308   1.419       .  A
C1307      O1312   1.374       .  S
C1308      C1309   1.402       .  A
C1309      C1310   1.406       .  A
C1309      H1313   1.083       .  S
C1310      O1314   1.370       .  S
O1312      H1316   0.992       .  S
O1314      H1315   0.992       .  S
C1317      C1318   1.407       .  A
C1317      C1322   1.407       .  A
C1318      C1319   1.387       .  A
C1318      H1323   1.084       .  S
C1319      C1320   1.407       .  A
C1319      O1324   1.373       .  S
C1320      C1321   1.412       .  A
C1321      C1322   1.405       .  A
C1321      H1325   1.084       .  S
C1322      O1326   1.371       .  S
O1324      H1328   0.992       .  S
O1326      H1327   0.992       .  S
C1329      C1330   1.398       .  A
C1329      C1334   1.414       .  A
C1330      C1331   1.404       .  A
C1330      H1335   1.083       .  S
C1331      C1332   1.421       .  A
C1331      O1336   1.374       .  S
C1332      C1333   1.404       .  A
C1333      C1334   1.406       .  A
C1333      H1337   1.083       .  S
C1334      O1338   1.372       .  S
O1336      H1340   0.992       .  S
O1338      H1339   0.992       .  S
C1341      C1342   1.403   1_565  A
C1341      C1346   1.409       .  A
C1342      C1343   1.390       .  A
C1342      H1347   1.084       .  S
C1343      C1344   1.405       .  A
C1343      O1348   1.372       .  S
C1344      C1345   1.404       .  A
C1345      C1346   1.403   1_545  A
C1345      H1349   1.083       .  S
C1346      O1350   1.372       .  S
O1348      H1352   0.992       .  S
O1350      H1351   0.992       .  S
C1353      C1354   1.415       .  A
C1353      C1358   1.405       .  A
C1354      C1355   1.397       .  A
C1354      H1359   1.083       .  S
C1355      C1356   1.401       .  A
C1355      O1360   1.371       .  S
C1356      C1357   1.415       .  A
C1357      C1358   1.404       .  A
C1357      H1361   1.084       .  S
C1358      O1362   1.371       .  S
O1360      H1364   0.992       .  S
O1362      H1363   0.992       .  S
C1365      C1366   1.399       .  A
C1365      C1370   1.406       .  A
C1366      C1367   1.400       .  A
C1366      H1371   1.084       .  S
C1367      C1368   1.415       .  A
C1367      O1372   1.370       .  S
C1368      C1369   1.406       .  A
C1369      C1370   1.398       .  A
C1369      H1373   1.083       .  S
C1370      O1374   1.372       .  S
O1372      H1376   0.992       .  S
O1374      H1375   0.992       .  S
C1377      C1378   1.404       .  A
C1377      C1382   1.414       .  A
C1378      C1379   1.399       .  A
C1378      H1383   1.083       .  S
C1379      C1380   1.408       .  A
C1379      O1384   1.371   1_455  S
C1380      C1381   1.398       .  A
C1381      C1382   1.397       .  A
C1381      H1385   1.084       .  S
C1382      O1386   1.372       .  S
O1384      H1388   0.992       .  S
O1386      H1387   0.992       .  S
C1389      C1390   1.405       .  A
C1389      C1394   1.403       .  A
C1390      C1391   1.400       .  A
C1390      H1395   1.084       .  S
C1391      C1392   1.406       .  A
C1391      O1396   1.371       .  S
C1392      C1393   1.406       .  A
C1393      C1394   1.396       .  A
C1393      H1397   1.084       .  S
C1394      O1398   1.372       .  S
O1396      H1400   0.991       .  S
O1398      H1399   0.992       .  S
C1401      C1402   1.408       .  A
C1401      C1406   1.403       .  A
C1402      C1403   1.402       .  A
C1402      H1407   1.084       .  S
C1403      C1404   1.406       .  A
C1403      O1408   1.371       .  S
C1404      C1405   1.413       .  A
C1405      C1406   1.403       .  A
C1405      H1409   1.084       .  S
C1406      O1410   1.372       .  S
O1408      H1412   0.992       .  S
O1410      H1411   0.992       .  S
C1413      C1414   1.405       .  A
C1413      C1418   1.408       .  A
C1414      C1415   1.404   1_455  A
C1414      H1419   1.082       .  S
C1415      C1416   1.407       .  A
C1415      O1420   1.371       .  S
C1416      C1417   1.401       .  A
C1417      C1418   1.396   1_655  A
C1417      H1421   1.084       .  S
C1418      O1422   1.373       .  S
O1420      H1424   0.991       .  S
O1422      H1423   0.992       .  S
C1425      C1426   1.409       .  A
C1425      C1430   1.413       .  A
C1426      C1427   1.413       .  A
C1426      H1431   1.083       .  S
C1427      C1428   1.416       .  A
C1427      O1432   1.371       .  S
C1428      C1429   1.413       .  A
C1429      C1430   1.409       .  A
C1429      H1433   1.082       .  S
C1430      O1434   1.372       .  S
O1432      H1436   0.992       .  S
O1434      H1435   0.992       .  S
C1437      C1438   1.411       .  A
C1437      C1442   1.416       .  A
C1438      C1439   1.414       .  A
C1438      H1443   1.083       .  S
C1439      C1440   1.416       .  A
C1439      O1444   1.371       .  S
C1440      C1441   1.410       .  A
C1441      C1442   1.416       .  A
C1441      H1445   1.083       .  S
C1442      O1446   1.372       .  S
O1444      H1448   0.992       .  S
O1446      H1447   0.992       .  S
C1449      C1450   1.406       .  A
C1449      C1454   1.412       .  A
C1450      C1451   1.397       .  A
C1450      H1455   1.083       .  S
C1451      C1452   1.409       .  A
C1451      O1456   1.372       .  S
C1452      C1453   1.407       .  A
C1453      C1454   1.407       .  A
C1453      H1457   1.083       .  S
C1454      O1458   1.372       .  S
O1456      H1460   0.992       .  S
O1458      H1459   0.992       .  S
C1461      C1462   1.406       .  A
C1461      C1466   1.410       .  A
C1462      C1463   1.403       .  A
C1462      H1467   1.084       .  S
C1463      C1464   1.411       .  A
C1463      O1468   1.372       .  S
C1464      C1465   1.407       .  A
C1465      C1466   1.405       .  A
C1465      H1469   1.083       .  S
C1466      O1470   1.372       .  S
O1468      H1472   0.992       .  S
O1470      H1471   0.992       .  S
C1473      C1474   1.405       .  A
C1473      C1478   1.407       .  A
C1474      C1475   1.398       .  A
C1474      H1479   1.084       .  S
C1475      C1476   1.407       .  A
C1475      O1480   1.372       .  S
C1476      C1477   1.405       .  A
C1477      C1478   1.400       .  A
C1477      H1481   1.084       .  S
C1478      O1482   1.371       .  S
O1480      H1484   0.992       .  S
O1482      H1483   0.992       .  S
C1485      C1486   1.403       .  A
C1485      C1490   1.409       .  A
C1486      C1487   1.399       .  A
C1486      H1491   1.084       .  S
C1487      C1488   1.411       .  A
C1487      O1492   1.372       .  S
C1488      C1489   1.404       .  A
C1489      C1490   1.403       .  A
C1489      H1493   1.083       .  S
C1490      O1494   1.372       .  S
O1492      H1496   0.992       .  S
O1494      H1495   0.992       .  S
C1497      C1498   1.411       .  A
C1497      C1502   1.421       .  A
C1498      C1499   1.416       .  A
C1498      H1503   1.082       .  S
C1499      C1500   1.417       .  A
C1499      O1504   1.373       .  S
C1500      C1501   1.408       .  A
C1501      C1502   1.418       .  A
C1501      H1505   1.083       .  S
C1502      O1506   1.372       .  S
O1504      H1508   0.992       .  S
O1506      H1507   0.992       .  S
C1509      C1510   1.404       .  A
C1509      C1514   1.411       .  A
C1510      C1511   1.402       .  A
C1510      H1515   1.084       .  S
C1511      C1512   1.413       .  A
C1511      O1516   1.372       .  S
C1512      C1513   1.408       .  A
C1513      C1514   1.405       .  A
C1513      H1517   1.083       .  S
C1514      O1518   1.371       .  S
O1516      H1520   0.992       .  S
O1518      H1519   0.992   1_554  S
C1521      C1522   1.408   1_565  A
C1521      C1526   1.411       .  A
C1522      C1523   1.413       .  A
C1522      H1527   1.083       .  S
C1523      C1524   1.417   1_545  A
C1523      O1528   1.372       .  S
C1524      C1525   1.407       .  A
C1525      C1526   1.399       .  A
C1525      H1529   1.083       .  S
C1526      O1530   1.372       .  S
O1528      H1532   0.992       .  S
O1530      H1531   0.992       .  S
C1533      C1534   1.408       .  A
C1533      C1538   1.410       .  A
C1534      C1535   1.410       .  A
C1534      H1539   1.083       .  S
C1535      C1536   1.412       .  A
C1535      O1540   1.371       .  S
C1536      C1537   1.407       .  A
C1537      C1538   1.404       .  A
C1537      H1541   1.084       .  S
C1538      O1542   1.372       .  S
O1540      H1544   0.992       .  S
O1542      H1543   0.992       .  S
C1545      C1546   1.406       .  A
C1545      C1550   1.413       .  A
C1546      C1547   1.401       .  A
C1546      H1551   1.083       .  S
C1547      C1548   1.417       .  A
C1547      O1552   1.372       .  S
C1548      C1549   1.409       .  A
C1549      C1550   1.412       .  A
C1549      H1553   1.083       .  S
C1550      O1554   1.372       .  S
O1552      H1556   0.992       .  S
O1554      H1555   0.992       .  S
C1557      C1558   1.410       .  A
C1557      C1562   1.416       .  A
C1558      C1559   1.415       .  A
C1558      H1563   1.083       .  S
C1559      C1560   1.415       .  A
C1559      O1564   1.372       .  S
C1560      C1561   1.409       .  A
C1561      C1562   1.413       .  A
C1561      H1565   1.083       .  S
C1562      O1566   1.372       .  S
O1564      H1568   0.992       .  S
O1566      H1567   0.992       .  S
C1569      C1570   1.411       .  A
C1569      C1574   1.417   1_655  A
C1570      C1571   1.407       .  A
C1570      H1575   1.082       .  S
C1571      C1572   1.413       .  A
C1571      O1576   1.371       .  S
C1572      C1573   1.407   1_655  A
C1573      C1574   1.411       .  A
C1573      H1577   1.083       .  S
C1574      O1578   1.372       .  S
O1576      H1580   0.992       .  S
O1578      H1579   0.992       .  S
C1581      C1582   1.406       .  A
C1581      C1586   1.416       .  A
C1582      C1583   1.401       .  A
C1582      H1587   1.081       .  S
C1583      C1584   1.410       .  A
C1583      O1588   1.372       .  S
C1584      C1585   1.402       .  A
C1585      C1586   1.407       .  A
C1585      H1589   1.084   1_565  S
C1586      O1590   1.371       .  S
O1588      H1592   0.991       .  S
O1590      H1591   0.992       .  S
C1593      C1594   1.415       .  A
C1593      C1598   1.409       .  A
C1594      C1595   1.400       .  A
C1594      H1599   1.082       .  S
C1595      C1596   1.406       .  A
C1595      O1600   1.372       .  S
C1596      C1597   1.417       .  A
C1597      C1598   1.413       .  A
C1597      H1601   1.083   1_455  S
C1598      O1602   1.371       .  S
O1600      H1604   0.992       .  S
O1602      H1603   0.992       .  S
C1605      C1606   1.400       .  A
C1605      C1610   1.413       .  A
C1606      C1607   1.408       .  A
C1606      H1611   1.083       .  S
C1607      C1608   1.418       .  A
C1607      O1612   1.373       .  S
C1608      C1609   1.400       .  A
C1609      C1610   1.394       .  A
C1609      H1613   1.084       .  S
C1610      O1614   1.372       .  S
O1612      H1616   0.992       .  S
O1614      H1615   0.992       .  S
C1617      C1618   1.407       .  A
C1617      C1622   1.415       .  A
C1618      C1619   1.408       .  A
C1618      H1623   1.083       .  S
C1619      C1620   1.410       .  A
C1619      O1624   1.371       .  S
C1620      C1621   1.399       .  A
C1621      C1622   1.400       .  A
C1621      H1625   1.084       .  S
C1622      O1626   1.370       .  S
O1624      H1628   0.992       .  S
O1626      H1627   0.992       .  S
C1629      C1630   1.412       .  A
C1629      C1634   1.405       .  A
C1630      C1631   1.392       .  A
C1630      H1635   1.082       .  S
C1631      C1632   1.401       .  A
C1631      O1636   1.372       .  S
C1632      C1633   1.412       .  A
C1633      C1634   1.403       .  A
C1633      H1637   1.084       .  S
C1634      O1638   1.372       .  S
O1636      H1640   0.992       .  S
O1638      H1639   0.992       .  S
C1641      C1642   1.402       .  A
C1641      C1646   1.411       .  A
C1642      C1643   1.405       .  A
C1642      H1647   1.084       .  S
C1643      C1644   1.414       .  A
C1643      O1648   1.371       .  S
C1644      C1645   1.406       .  A
C1645      C1646   1.406       .  A
C1645      H1649   1.084       .  S
C1646      O1650   1.372       .  S
O1648      H1652   0.992       .  S
O1650      H1651   0.992       .  S
C1653      C1654   1.402       .  A
C1653      C1658   1.415       .  A
C1654      C1655   1.398       .  A
C1654      H1659   1.084       .  S
C1655      C1656   1.409       .  A
C1655      O1660   1.374       .  S
C1656      C1657   1.399       .  A
C1657      C1658   1.400       .  A
C1657      H1661   1.084       .  S
C1658      O1662   1.370       .  S
O1660      H1664   0.992       .  S
O1662      H1663   0.991       .  S
C1665      C1666   1.399       .  A
C1665      C1670   1.412       .  A
C1666      C1667   1.404       .  A
C1666      H1671   1.083       .  S
C1667      C1668   1.418       .  A
C1667      O1672   1.371       .  S
C1668      C1669   1.402       .  A
C1669      C1670   1.407       .  A
C1669      H1673   1.084       .  S
C1670      O1674   1.367       .  S
O1672      H1676   0.992       .  S
O1674      H1675   0.992       .  S
C1677      C1678   1.406       .  A
C1677      C1682   1.416       .  A
C1678      C1679   1.398       .  A
C1678      H1683   1.079       .  S
C1679      C1680   1.406       .  A
C1679      O1684   1.373       .  S
C1680      C1681   1.400       .  A
C1681      C1682   1.401       .  A
C1681      H1685   1.084       .  S
C1682      O1686   1.372       .  S
O1684      H1688   0.992       .  S
O1686      H1687   0.992       .  S
C1689      C1690   1.405   1_655  A
C1689      C1694   1.411       .  A
C1690      C1691   1.408       .  A
C1690      H1695   1.083       .  S
C1691      C1692   1.412   1_455  A
C1691      O1696   1.372       .  S
C1692      C1693   1.407       .  A
C1693      C1694   1.406       .  A
C1693      H1697   1.084       .  S
C1694      O1698   1.373       .  S
O1696      H1700   0.992   1_455  S
O1698      H1699   0.992       .  S
C1701      C1702   1.404       .  A
C1701      C1706   1.413       .  A
C1702      C1703   1.397       .  A
C1702      H1707   1.084       .  S
C1703      C1704   1.411       .  A
C1703      O1708   1.372       .  S
C1704      C1705   1.403       .  A
C1705      C1706   1.407       .  A
C1705      H1709   1.083       .  S
C1706      O1710   1.369       .  S
O1708      H1712   0.992       .  S
O1710      H1711   0.992       .  S
C1713      C1714   1.409   1_455  A
C1713      C1718   1.411       .  A
C1714      C1715   1.407       .  A
C1714      H1719   1.083       .  S
C1715      C1716   1.412       .  A
C1715      O1720   1.372       .  S
C1716      C1717   1.410   1_655  A
C1717      C1718   1.407       .  A
C1717      H1721   1.083       .  S
C1718      O1722   1.372       .  S
O1720      H1724   0.992       .  S
O1722      H1723   0.992       .  S
C1725      C1726   1.410       .  A
C1725      C1730   1.410       .  A
C1726      C1727   1.403       .  A
C1726      H1731   1.084       .  S
C1727      C1728   1.404       .  A
C1727      O1732   1.371       .  S
C1728      C1729   1.406       .  A
C1729      C1730   1.406       .  A
C1729      H1733   1.084       .  S
C1730      O1734   1.371       .  S
O1732      H1736   0.992       .  S
O1734      H1735   0.992   1_554  S
C1737      C1738   1.407       .  A
C1737      C1742   1.413   1_545  A
C1738      C1739   1.411       .  A
C1738      H1743   1.083       .  S
C1739      C1740   1.414   1_545  A
C1739      O1744   1.372       .  S
C1740      C1741   1.407       .  A
C1741      C1742   1.409       .  A
C1741      H1745   1.083       .  S
C1742      O1746   1.372       .  S
O1744      H1748   0.992   1_545  S
O1746      H1747   0.992       .  S
C1749      C1750   1.404       .  A
C1749      C1754   1.409       .  A
C1750      C1751   1.407       .  A
C1750      H1755   1.083       .  S
C1751      C1752   1.415       .  A
C1751      O1756   1.370       .  S
C1752      C1753   1.406       .  A
C1753      C1754   1.399       .  A
C1753      H1757   1.083       .  S
C1754      O1758   1.373       .  S
O1756      H1760   0.992       .  S
O1758      H1759   0.992       .  S
C1761      C1762   1.402       .  A
C1761      C1766   1.416       .  A
C1762      C1763   1.406       .  A
C1762      H1767   1.084       .  S
C1763      C1764   1.412       .  A
C1763      O1768   1.372       .  S
C1764      C1765   1.401       .  A
C1765      C1766   1.408       .  A
C1765      H1769   1.083       .  S
C1766      O1770   1.371       .  S
O1768      H1772   0.992       .  S
O1770      H1771   0.991       .  S
C1773      C1774   1.408   1_554  A
C1773      C1778   1.416       .  A
C1774      C1775   1.407       .  A
C1774      H1779   1.083       .  S
C1775      C1776   1.411   1_556  A
C1775      O1780   1.372       .  S
C1776      C1777   1.406       .  A
C1777      C1778   1.408       .  A
C1777      H1781   1.083       .  S
C1778      O1782   1.371       .  S
O1780      H1784   0.992       .  S
O1782      H1783   0.992       .  S
C1785      C1786   1.398       .  A
C1785      C1790   1.421       .  A
C1786      C1787   1.395       .  A
C1786      H1791   1.083   1_545  S
C1787      C1788   1.421       .  A
C1787      O1792   1.372       .  S
C1788      C1789   1.402       .  A
C1789      C1790   1.409       .  A
C1789      H1793   1.083       .  S
C1790      O1794   1.374   1_554  S
O1792      H1796   0.992       .  S
O1794      H1795   0.992       .  S
C1797      C1798   1.405       .  A
C1797      C1802   1.416   1_556  A
C1798      C1799   1.405       .  A
C1798      H1803   1.083       .  S
C1799      C1800   1.413   1_556  A
C1799      O1804   1.373       .  S
C1800      C1801   1.406       .  A
C1801      C1802   1.408       .  A
C1801      H1805   1.083       .  S
C1802      O1806   1.371       .  S
O1804      H1808   0.992       .  S
O1806      H1807   0.992       .  S
C1809      C1810   1.398       .  A
C1809      C1814   1.414       .  A
C1810      C1811   1.401       .  A
C1810      H1815   1.084       .  S
C1811      C1812   1.419       .  A
C1811      O1816   1.372       .  S
C1812      C1813   1.403       .  A
C1813      C1814   1.406       .  A
C1813      H1817   1.083       .  S
C1814      O1818   1.372       .  S
O1816      H1820   0.992   1_554  S
O1818      H1819   0.992       .  S
C1821      C1822   1.405       .  A
C1821      C1826   1.407   1_565  A
C1822      C1823   1.410       .  A
C1822      H1827   1.083       .  S
C1823      C1824   1.416       .  A
C1823      O1828   1.371       .  S
C1824      C1825   1.408   1_565  A
C1825      C1826   1.403       .  A
C1825      H1829   1.083       .  S
C1826      O1830   1.372       .  S
O1828      H1832   0.992   1_565  S
O1830      H1831   0.992   1_545  S
C1833      C1834   1.405       .  A
C1833      C1838   1.404       .  A
C1834      C1835   1.408       .  A
C1834      H1839   1.083       .  S
C1835      C1836   1.409       .  A
C1835      O1840   1.371       .  S
C1836      C1837   1.404       .  A
C1837      C1838   1.393       .  A
C1837      H1841   1.083       .  S
C1838      O1842   1.372       .  S
O1840      H1844   0.992       .  S
O1842      H1843   0.992   1_455  S
C1845      C1846   1.407       .  A
C1845      C1850   1.408       .  A
C1846      C1847   1.407       .  A
C1846      H1851   1.084       .  S
C1847      C1848   1.409       .  A
C1847      O1852   1.375       .  S
C1848      C1849   1.407       .  A
C1849      C1850   1.406       .  A
C1849      H1853   1.083       .  S
C1850      O1854   1.371   1_455  S
O1852      H1856   0.992       .  S
O1854      H1855   0.992       .  S
C1857      C1858   1.404       .  A
C1857      C1862   1.410   1_565  A
C1858      C1859   1.404       .  A
C1858      H1863   1.084       .  S
C1859      C1860   1.415       .  A
C1859      O1864   1.371       .  S
C1860      C1861   1.407   1_565  A
C1861      C1862   1.405       .  A
C1861      H1865   1.083       .  S
C1862      O1866   1.372       .  S
O1864      H1868   0.992       .  S
O1866      H1867   0.992       .  S
C1869      C1870   1.403       .  A
C1869      C1874   1.415       .  A
C1870      C1871   1.397       .  A
C1870      H1875   1.083       .  S
C1871      C1872   1.408       .  A
C1871      O1876   1.371       .  S
C1872      C1873   1.396       .  A
C1873      C1874   1.393       .  A
C1873      H1877   1.084       .  S
C1874      O1878   1.372       .  S
O1876      H1880   0.992       .  S
O1878      H1879   0.992       .  S
C1881      C1882   1.411       .  A
C1881      C1886   1.415       .  A
C1882      C1883   1.412       .  A
C1882      H1887   1.083       .  S
C1883      C1884   1.412       .  A
C1883      O1888   1.372       .  S
C1884      C1885   1.408       .  A
C1885      C1886   1.411       .  A
C1885      H1889   1.083       .  S
C1886      O1890   1.371       .  S
O1888      H1892   0.992       .  S
O1890      H1891   0.992       .  S
C1893      C1894   1.407       .  A
C1893      C1898   1.409       .  A
C1894      C1895   1.399       .  A
C1894      H1899   1.084       .  S
C1895      C1896   1.408       .  A
C1895      O1900   1.372       .  S
C1896      C1897   1.407       .  A
C1897      C1898   1.399       .  A
C1897      H1901   1.083       .  S
C1898      O1902   1.372       .  S
O1900      H1904   0.992       .  S
O1902      H1903   0.992       .  S
C1905      C1906   1.399       .  A
C1905      C1910   1.409       .  A
C1906      C1907   1.400       .  A
C1906      H1911   1.084       .  S
C1907      C1908   1.415       .  A
C1907      O1912   1.372   1_556  S
C1908      C1909   1.403       .  A
C1909      C1910   1.400       .  A
C1909      H1913   1.083   1_545  S
C1910      O1914   1.371       .  S
O1912      H1916   0.992       .  S
O1914      H1915   0.992       .  S
C1917      C1918   1.404       .  A
C1917      C1922   1.412       .  A
C1918      C1919   1.391       .  A
C1918      H1923   1.084       .  S
C1919      C1920   1.406       .  A
C1919      O1924   1.372       .  S
C1920      C1921   1.403       .  A
C1921      C1922   1.406       .  A
C1921      H1925   1.083       .  S
C1922      O1926   1.369       .  S
O1924      H1928   0.991       .  S
O1926      H1927   0.991       .  S
C1929      C1930   1.410       .  A
C1929      C1934   1.413       .  A
C1930      C1931   1.398   1_556  A
C1930      H1935   1.083       .  S
C1931      C1932   1.404       .  A
C1931      O1936   1.372       .  S
C1932      C1933   1.401       .  A
C1933      C1934   1.402   1_554  A
C1933      H1937   1.084       .  S
C1934      O1938   1.370       .  S
O1936      H1940   0.991       .  S
O1938      H1939   0.991       .  S
C1941      C1942   1.407       .  A
C1941      C1946   1.400       .  A
C1942      C1943   1.403       .  A
C1942      H1947   1.084       .  S
C1943      C1944   1.409       .  A
C1943      O1948   1.371       .  S
C1944      C1945   1.414       .  A
C1945      C1946   1.396       .  A
C1945      H1949   1.083       .  S
C1946      O1950   1.372       .  S
O1948      H1952   0.992       .  S
O1950      H1951   0.992       .  S
C1953      C1954   1.402       .  A
C1953      C1958   1.416       .  A
C1954      C1955   1.401       .  A
C1954      H1959   1.083       .  S
C1955      C1956   1.412       .  A
C1955      O1960   1.372   1_545  S
C1956      C1957   1.395       .  A
C1957      C1958   1.393       .  A
C1957      H1961   1.084       .  S
C1958      O1962   1.372       .  S
O1960      H1964   0.992       .  S
O1962      H1963   0.992       .  S
C1965      C1966   1.408       .  A
C1965      C1970   1.410       .  A
C1966      C1967   1.400       .  A
C1966      H1971   1.082       .  S
C1967      C1968   1.404       .  A
C1967      O1972   1.371       .  S
C1968      C1969   1.410       .  A
C1969      C1970   1.411       .  A
C1969      H1973   1.083       .  S
C1970      O1974   1.371       .  S
O1972      H1976   0.992       .  S
O1974      H1975   0.992       .  S
C1977      C1978   1.400       .  A
C1977      C1982   1.408       .  A
C1978      C1979   1.393       .  A
C1978      H1983   1.084       .  S
C1979      C1980   1.407       .  A
C1979      O1984   1.372       .  S
C1980      C1981   1.403       .  A
C1981      C1982   1.403       .  A
C1981      H1985   1.084       .  S
C1982      O1986   1.371       .  S
O1984      H1988   0.992       .  S
O1986      H1987   0.992       .  S
C1989      C1990   1.407       .  A
C1989      C1994   1.410       .  A
C1990      C1991   1.402   1_556  A
C1990      H1995   1.083       .  S
C1991      C1992   1.405       .  A
C1991      O1996   1.371       .  S
C1992      C1993   1.399   1_554  A
C1993      C1994   1.388       .  A
C1993      H1997   1.084       .  S
C1994      O1998   1.372       .  S
O1996      H2000   0.992       .  S
O1998      H1999   0.992       .  S
C2001      C2002   1.398       .  A
C2001      C2006   1.413       .  A
C2002      C2003   1.397       .  A
C2002      H2007   1.084       .  S
C2003      C2004   1.413       .  A
C2003      O2008   1.373       .  S
C2004      C2005   1.398       .  A
C2005      C2006   1.394       .  A
C2005      H2009   1.084       .  S
C2006      O2010   1.372       .  S
O2008      H2012   0.992       .  S
O2010      H2011   0.992       .  S
C2013      C2014   1.398       .  A
C2013      C2018   1.406       .  A
C2014      C2015   1.397       .  A
C2014      H2019   1.084       .  S
C2015      C2016   1.414       .  A
C2015      O2020   1.373       .  S
C2016      C2017   1.402       .  A
C2017      C2018   1.397       .  A
C2017      H2021   1.083       .  S
C2018      O2022   1.372       .  S
O2020      H2024   0.992       .  S
O2022      H2023   0.992       .  S
C2025      C2026   1.406       .  A
C2025      C2030   1.415       .  A
C2026      C2027   1.407       .  A
C2026      H2031   1.083       .  S
C2027      C2028   1.410       .  A
C2027      O2032   1.371       .  S
C2028      C2029   1.400       .  A
C2029      C2030   1.400       .  A
C2029      H2033   1.084       .  S
C2030      O2034   1.372       .  S
O2032      H2036   0.992       .  S
O2034      H2035   0.992       .  S
C2037      C2038   1.410       .  A
C2037      C2042   1.415       .  A
C2038      C2039   1.407       .  A
C2038      H2043   1.083       .  S
C2039      C2040   1.412       .  A
C2039      O2044   1.372       .  S
C2040      C2041   1.406       .  A
C2041      C2042   1.407       .  A
C2041      H2045   1.083       .  S
C2042      O2046   1.372       .  S
O2044      H2048   0.992       .  S
O2046      H2047   0.992       .  S
C2049      C2050   1.410       .  A
C2049      C2054   1.413       .  A
C2050      C2051   1.414       .  A
C2050      H2055   1.083       .  S
C2051      C2052   1.414       .  A
C2051      O2056   1.371       .  S
C2052      C2053   1.409       .  A
C2053      C2054   1.407       .  A
C2053      H2057   1.083       .  S
C2054      O2058   1.372   1_554  S
O2056      H2060   0.992       .  S
O2058      H2059   0.992   1_556  S
C2061      C2062   1.410       .  A
C2061      C2066   1.407       .  A
C2062      C2063   1.401       .  A
C2062      H2067   1.084   1_556  S
C2063      C2064   1.404       .  A
C2063      O2068   1.371       .  S
C2064      C2065   1.408       .  A
C2065      C2066   1.404       .  A
C2065      H2069   1.084       .  S
C2066      O2070   1.371       .  S
O2068      H2072   0.992       .  S
O2070      H2071   0.991       .  S
C2073      C2074   1.409       .  A
C2073      C2078   1.412       .  A
C2074      C2075   1.400       .  A
C2074      H2079   1.083   1_655  S
C2075      C2076   1.404       .  A
C2075      O2080   1.372       .  S
C2076      C2077   1.406       .  A
C2077      C2078   1.406       .  A
C2077      H2081   1.084       .  S
C2078      O2082   1.371   1_554  S
O2080      H2084   0.992       .  S
O2082      H2083   0.992       .  S
C2085      C2086   1.404       .  A
C2085      C2090   1.408       .  A
C2086      C2087   1.396       .  A
C2086      H2091   1.084       .  S
C2087      C2088   1.409       .  A
C2087      O2092   1.372       .  S
C2088      C2089   1.407       .  A
C2089      C2090   1.404       .  A
C2089      H2093   1.083       .  S
C2090      O2094   1.372       .  S
O2092      H2096   0.992       .  S
O2094      H2095   0.992       .  S
C2097      C2098   1.409       .  A
C2097      C2102   1.411       .  A
C2098      C2099   1.403   1_655  A
C2098      H2103   1.083       .  S
C2099      C2100   1.406       .  A
C2099      O2104   1.371       .  S
C2100      C2101   1.406   1_455  A
C2101      C2102   1.397       .  A
C2101      H2105   1.084       .  S
C2102      O2106   1.372       .  S
O2104      H2108   0.992       .  S
O2106      H2107   0.992       .  S
C2109      C2110   1.414       .  A
C2109      C2114   1.407       .  A
C2110      C2111   1.401       .  A
C2110      H2115   1.083   1_554  S
C2111      C2112   1.401       .  A
C2111      O2116   1.371       .  S
C2112      C2113   1.404       .  A
C2113      C2114   1.397       .  A
C2113      H2117   1.084       .  S
C2114      O2118   1.372       .  S
O2116      H2120   0.992       .  S
O2118      H2119   0.992       .  S
C2121      C2122   1.416       .  A
C2121      C2126   1.403       .  A
C2122      C2123   1.409       .  A
C2122      H2127   1.083   1_554  S
C2123      C2124   1.406       .  A
C2123      O2128   1.371       .  S
C2124      C2125   1.414       .  A
C2125      C2126   1.393       .  A
C2125      H2129   1.081       .  S
C2126      O2130   1.373       .  S
O2128      H2132   0.992       .  S
O2130      H2131   0.992       .  S
C2133      C2134   1.403       .  A
C2133      C2138   1.412       .  A
C2134      C2135   1.405       .  A
C2134      H2139   1.083       .  S
C2135      C2136   1.412       .  A
C2135      O2140   1.371       .  S
C2136      C2137   1.398       .  A
C2137      C2138   1.400       .  A
C2137      H2141   1.084       .  S
C2138      O2142   1.368       .  S
O2140      H2144   0.991       .  S
O2142      H2143   0.992       .  S
C2145      C2146   1.405       .  A
C2145      C2150   1.411       .  A
C2146      C2147   1.400       .  A
C2146      H2151   1.084       .  S
C2147      C2148   1.407       .  A
C2147      O2152   1.373       .  S
C2148      C2149   1.403       .  A
C2149      C2150   1.406       .  A
C2149      H2153   1.084       .  S
C2150      O2154   1.370       .  S
O2152      H2156   0.992       .  S
O2154      H2155   0.991       .  S
C2157      C2158   1.401       .  A
C2157      C2162   1.410       .  A
C2158      C2159   1.399       .  A
C2158      H2163   1.084       .  S
C2159      C2160   1.411       .  A
C2159      O2164   1.371   1_655  S
C2160      C2161   1.406       .  A
C2161      C2162   1.405       .  A
C2161      H2165   1.084       .  S
C2162      O2166   1.372       .  S
O2164      H2168   0.992       .  S
O2166      H2167   0.992       .  S
C2169      C2170   1.406       .  A
C2169      C2174   1.415       .  A
C2170      C2171   1.399   1_655  A
C2170      H2175   1.083       .  S
C2171      C2172   1.408       .  A
C2171      O2176   1.373       .  S
C2172      C2173   1.401       .  A
C2173      C2174   1.403   1_455  A
C2173      H2177   1.084       .  S
C2174      O2178   1.370       .  S
O2176      H2180   0.992   1_455  S
O2178      H2179   0.992       .  S
C2181      C2182   1.398       .  A
C2181      C2186   1.414       .  A
C2182      C2183   1.404       .  A
C2182      H2187   1.084       .  S
C2183      C2184   1.418       .  A
C2183      O2188   1.373       .  S
C2184      C2185   1.404       .  A
C2185      C2186   1.408       .  A
C2185      H2189   1.083       .  S
C2186      O2190   1.371       .  S
O2188      H2192   0.992       .  S
O2190      H2191   0.992       .  S
C2193      C2194   1.399       .  A
C2193      C2198   1.413       .  A
C2194      C2195   1.402       .  A
C2194      H2199   1.084       .  S
C2195      C2196   1.415       .  A
C2195      O2200   1.373       .  S
C2196      C2197   1.399       .  A
C2197      C2198   1.397       .  A
C2197      H2201   1.084       .  S
C2198      O2202   1.373       .  S
O2200      H2204   0.992       .  S
O2202      H2203   0.992       .  S
C2205      C2206   1.405       .  A
C2205      C2210   1.417       .  A
C2206      C2207   1.403       .  A
C2206      H2211   1.083       .  S
C2207      C2208   1.410       .  A
C2207      O2212   1.371       .  S
C2208      C2209   1.399       .  A
C2209      C2210   1.401       .  A
C2209      H2213   1.084       .  S
C2210      O2214   1.372       .  S
O2212      H2216   0.991       .  S
O2214      H2215   0.992       .  S
C2217      C2218   1.411       .  A
C2217      C2222   1.406       .  A
C2218      C2219   1.390       .  A
C2218      H2223   1.083       .  S
C2219      C2220   1.402       .  A
C2219      O2224   1.372       .  S
C2220      C2221   1.410       .  A
C2221      C2222   1.401       .  A
C2221      H2225   1.084       .  S
C2222      O2226   1.372       .  S
O2224      H2228   0.992       .  S
O2226      H2227   0.992       .  S
C2229      C2230   1.398       .  A
C2229      C2234   1.402       .  A
C2230      C2231   1.392       .  A
C2230      H2235   1.084       .  S
C2231      C2232   1.410       .  A
C2231      O2236   1.372       .  S
C2232      C2233   1.406       .  A
C2233      C2234   1.397       .  A
C2233      H2237   1.083       .  S
C2234      O2238   1.372       .  S
O2236      H2240   0.991       .  S
O2238      H2239   0.992       .  S
C2241      C2242   1.400       .  A
C2241      C2246   1.415       .  A
C2242      C2243   1.402       .  A
C2242      H2247   1.084       .  S
C2243      C2244   1.419       .  A
C2243      O2248   1.372       .  S
C2244      C2245   1.405       .  A
C2245      C2246   1.412       .  A
C2245      H2249   1.083       .  S
C2246      O2250   1.371       .  S
O2248      H2252   0.991       .  S
O2250      H2251   0.992       .  S
C2253      C2254   1.396       .  A
C2253      C2258   1.412       .  A
C2254      C2255   1.392       .  A
C2254      H2259   1.084       .  S
C2255      C2256   1.416       .  A
C2255      O2260   1.371       .  S
C2256      C2257   1.402       .  A
C2257      C2258   1.401       .  A
C2257      H2261   1.083       .  S
C2258      O2262   1.372       .  S
O2260      H2264   0.992       .  S
O2262      H2263   0.992       .  S
C2265      C2266   1.409       .  A
C2265      C2270   1.416       .  A
C2266      C2267   1.400       .  A
C2266      H2271   1.083       .  S
C2267      C2268   1.404       .  A
C2267      O2272   1.372       .  S
C2268      C2269   1.398       .  A
C2269      C2270   1.397       .  A
C2269      H2273   1.084       .  S
C2270      O2274   1.372       .  S
O2272      H2276   0.992       .  S
O2274      H2275   0.992       .  S
C2277      C2278   1.410       .  A
C2277      C2282   1.406       .  A
C2278      C2279   1.413       .  A
C2278      H2283   1.083       .  S
C2279      C2280   1.411       .  A
C2279      O2284   1.371       .  S
C2280      C2281   1.410       .  A
C2281      C2282   1.403       .  A
C2281      H2285   1.084       .  S
C2282      O2286   1.371       .  S
O2284      H2288   0.992       .  S
O2286      H2287   0.991       .  S
