geometry optimzed in LAMMPS
_audit_creation_date              2020-11-30 
_audit_creation_method            'lammps2cif' 
_symmetry_space_group_name_H-M    'P1' 
_symmetry_Int_Tables_number       1 
_symmetry_cell_setting            triclinic 
loop_ 
_symmetry_equiv_pos_as_xyz 
  x,y,z 
_cell_length_a                    35.43712682 
_cell_length_b                    35.67145196121533 
_cell_length_c                    35.70176434957245 
_cell_angle_alpha                 89.56567879580831 
_cell_angle_beta                  89.72456424707293 
_cell_angle_gamma                 89.8598337621936 
loop_ 
_atom_site_label 
_atom_site_type_symbol 
_atom_site_fract_x 
_atom_site_fract_y 
_atom_site_fract_z 
_atom_site_charge 
N1          N  0.49195369  0.94149168  0.49369211    -0.36100
N2          N  0.49544669  0.00173911  0.43719219    -0.56700
N3          N  0.50641945  0.05586813  0.49704606    -0.36100
N4          N  0.50319752  0.99571464  0.55361811    -0.56700
C5          C  0.49341439  0.92067940  0.46209350     0.27500
C6          C  0.49526431  0.91756024  0.52320801     0.27500
C7          C  0.50127491  0.07972611  0.46774899     0.27500
C8          C  0.50617636  0.07671990  0.52858844     0.27500
C9          C  0.49351588  0.97237221  0.41361875     0.36100
C10         C  0.49693776  0.03307453  0.41571002     0.36100
C11         C  0.50158126  0.96433617  0.57514550     0.36100
C12         C  0.50814195  0.02500238  0.57696211     0.36100
C13         C  0.49630068  0.88302445  0.47182201    -0.21400
C14         C  0.49733455  0.88106364  0.51014393    -0.21400
C15         C  0.49890961  0.11618031  0.48081156    -0.21400
C16         C  0.50221275  0.11433221  0.51893859    -0.21400
C17         C  0.49360969  0.98516080  0.37682520    -0.22400
C18         C  0.49568027  0.02359468  0.37815799    -0.22400
C19         C  0.50570740  0.97377439  0.61250235    -0.22400
C20         C  0.50987412  0.01211528  0.61364563    -0.22400
C21         C  0.49294399  0.93410393  0.42450874    -0.17800
C22         C  0.49754096  0.92716573  0.56168123    -0.17800
C23         C  0.50901648  0.06336954  0.56606623    -0.17800
C24         C  0.49889735  0.07018229  0.42935859    -0.17800
H25         H  0.49806605  0.85923322  0.45325053     0.15100
H26         H  0.50016553  0.85550984  0.52644248     0.15100
H27         H  0.49499683  0.14166338  0.46461990     0.15100
H28         H  0.50151175  0.13822961  0.53740455     0.15100
H29         H  0.49255382  0.96853424  0.35161425     0.13400
H30         H  0.49638526  0.04237196  0.35420695     0.13400
H31         H  0.50571202  0.95500992  0.63646377     0.13400
H32         H  0.51336904  0.02865233  0.63868011     0.13400
H33         H  0.48697294  0.97001310  0.49508651     0.26700
H34         H  0.51238680  0.02752349  0.49550335     0.26700
N35         N  0.94204255  0.50468153  0.50044372    -0.36100
N36         N  0.00265401  0.56097642  0.50371639    -0.56700
N37         N  0.05813060  0.50015200  0.50364705    -0.36100
N38         N  0.99745679  0.44384922  0.50047452    -0.56700
C39         C  0.92097412  0.53626993  0.50358277     0.27500
C40         C  0.91840077  0.47496733  0.50412183     0.27500
C41         C  0.08184305  0.52997049  0.50161141     0.27500
C42         C  0.07907175  0.46874985  0.49825896     0.27500
C43         C  0.97275074  0.58468276  0.50267263     0.36100
C44         C  0.03422943  0.58228205  0.50513424     0.36100
C45         C  0.96585003  0.42259850  0.49969365     0.36100
C46         C  0.02730937  0.42023856  0.49809198     0.36100
C47         C  0.88337126  0.52642315  0.50851724    -0.21400
C48         C  0.88178094  0.48799710  0.50896840    -0.21400
C49         C  0.11839435  0.51715704  0.49589381    -0.21400
C50         C  0.11665675  0.47882485  0.49378797    -0.21400
C51         C  0.98544410  0.62141158  0.50352871    -0.22400
C52         C  0.02425334  0.61988859  0.50525226    -0.22400
C53         C  0.97570652  0.38510237  0.49676960    -0.22400
C54         C  0.01454111  0.38360647  0.49575123    -0.22400
C55         C  0.93411105  0.57391650  0.50188525    -0.17800
C56         C  0.92823241  0.43631694  0.50224058    -0.17800
C57         C  0.06590921  0.43105877  0.49730749    -0.17800
C58         C  0.07198863  0.56856053  0.50456764    -0.17800
H59         H  0.85936573  0.54496318  0.51171188     0.15100
H60         H  0.85633433  0.47157505  0.51238033     0.15100
H61         H  0.14386150  0.53366304  0.49321307     0.15100
H62         H  0.14059428  0.46050476  0.48938540     0.15100
H63         H  0.96850934  0.64670784  0.50312609     0.13400
H64         H  0.04299382  0.64378688  0.50592519     0.13400
H65         H  0.95689928  0.36128343  0.49552715     0.13400
H66         H  0.03142827  0.35840596  0.49336468     0.13400
H67         H  0.97027491  0.50367612  0.49316593     0.26700
H68         H  0.02989159  0.50093689  0.51092779     0.26700
N69         N  0.49752407  0.49763709  0.94609172    -0.36100
N70         N  0.55641520  0.50334099  0.00346043    -0.56700
N71         N  0.49711573  0.50226089  0.06088695    -0.36100
N72         N  0.43820686  0.49691044  0.00336626    -0.56700
C73         C  0.52809553  0.50501944  0.92423550     0.27500
C74         C  0.46659085  0.50113873  0.92404760     0.27500
C75         C  0.52790210  0.50121229  0.08330073     0.27500
C76         C  0.46623080  0.49997241  0.08329742     0.27500
C77         C  0.57911070  0.50287857  0.97286146     0.36100
C78         C  0.57899096  0.50262105  0.03396316     0.36100
C79         C  0.41569507  0.49442608  0.97291601     0.36100
C80         C  0.41553649  0.49659974  0.03402275     0.36100
C81         C  0.51642745  0.51244286  0.88790131    -0.21400
C82         C  0.47796886  0.50986689  0.88772215    -0.21400
C83         C  0.51624997  0.49898549  0.12043905    -0.21400
C84         C  0.47763967  0.49828713  0.12044664    -0.21400
C85         C  0.61653782  0.50214842  0.98396150    -0.22400
C86         C  0.61646691  0.50204801  0.02260831    -0.22400
C87         C  0.37832051  0.49223382  0.98431154    -0.22400
C88         C  0.37820773  0.49366030  0.02293415    -0.22400
C89         C  0.56657569  0.50408046  0.93511734    -0.17800
C90         C  0.42817649  0.49678066  0.93504008    -0.17800
C91         C  0.42786421  0.49890109  0.07184993    -0.17800
C92         C  0.56639836  0.50198830  0.07187794    -0.17800
H93         H  0.53380231  0.51912517  0.86375665     0.15100
H94         H  0.46049822  0.51417789  0.86329296     0.15100
H95         H  0.53368378  0.49775128  0.14523025     0.15100
H96         H  0.46005514  0.49631323  0.14525246     0.15100
H97         H  0.64130175  0.50190212  0.96609696     0.13400
H98         H  0.64117807  0.50143433  0.04031043     0.13400
H99         H  0.35367092  0.49051871  0.96662938     0.13400
H100        H  0.35344629  0.49285415  0.04078811     0.13400
H101        H  0.49802411  0.48735323  0.97329039     0.26700
H102        H  0.49703037  0.50599173  0.03221788     0.26700
N103        N  0.00500752  0.55821763  0.00025112    -0.36100
N104        N  0.99985577  0.49967053  0.05695509    -0.56700
N105        N  0.00118712  0.44306154  0.99753716    -0.36100
N106        N  0.00212293  0.50142537  0.94065921    -0.56700
C107        C  0.99999344  0.57950763  0.03118141     0.27500
C108        C  0.99936706  0.58060799  0.97001068     0.27500
C109        C  0.99489744  0.42068454  0.02761505     0.27500
C110        C  0.99860199  0.42149207  0.96664806     0.27500
C111        C  0.00411839  0.52914585  0.08010938     0.36100
C112        C  0.00098867  0.46851047  0.07862532     0.36100
C113        C  0.00501763  0.53252702  0.91899921     0.36100
C114        C  0.00592549  0.47159464  0.91768356     0.36100
C115        C  0.99229259  0.61613945  0.02036772    -0.21400
C116        C  0.99180500  0.61683416  0.98192651    -0.21400
C117        C  0.98872854  0.38426095  0.01566914    -0.21400
C118        C  0.99117544  0.38475752  0.97735373    -0.21400
C119        C  0.00740932  0.51669080  0.11681744    -0.22400
C120        C  0.00539259  0.47828967  0.11589230    -0.22400
C121        C  0.00991791  0.52238762  0.88184292    -0.22400
C122        C  0.01059153  0.48383324  0.88104100    -0.22400
C123        C  0.00267666  0.56722377  0.06896486    -0.17800
C124        C  0.00202944  0.56994986  0.93185486    -0.17800
C125        C  0.00387243  0.43346334  0.92906170    -0.17800
C126        C  0.99695937  0.43135104  0.06568016    -0.17800
H127        H  0.98736266  0.64000141  0.03824988     0.15100
H128        H  0.98647826  0.64139124  0.96474186     0.15100
H129        H  0.98375593  0.35955138  0.03273364     0.15100
H130        H  0.98829412  0.36055207  0.95952761     0.15100
H131        H  0.01051101  0.53351039  0.14171873     0.13400
H132        H  0.00676669  0.45973135  0.13998016     0.13400
H133        H  0.01268255  0.54083917  0.85777909     0.13400
H134        H  0.01388439  0.46677539  0.85629052     0.13400
H135        H  0.01514853  0.53104274  0.99967646     0.26700
H136        H  0.01039361  0.47043082  0.99834391     0.26700
N137        N  0.55940314  0.00393542  0.99682046    -0.36100
N138        N  0.50324064  0.06401650  0.99777567    -0.56700
N139        N  0.44389443  0.00692720  0.00397695    -0.36100
N140        N  0.50017769  0.94706294  0.00262115    -0.56700
C141        C  0.58275688  0.03388334  0.99759399     0.27500
C142        C  0.58109276  0.97268882  0.99792019     0.27500
C143        C  0.42268695  0.03782414  0.99715309     0.27500
C144        C  0.42108087  0.97676997  0.00019859     0.27500
C145        C  0.53443427  0.08570888  0.99916197     0.36100
C146        C  0.47308976  0.08719956  0.99936871     0.36100
C147        C  0.53025379  0.92374830  0.00286665     0.36100
C148        C  0.46914895  0.92539743  0.00587040     0.36100
C149        C  0.61991008  0.02132420  0.99804892    -0.21400
C150        C  0.61886363  0.98295700  0.99811051    -0.21400
C151        C  0.38572879  0.02710107  0.99017348    -0.21400
C152        C  0.38472268  0.98878360  0.99213959    -0.21400
C153        C  0.52401732  0.12312080  0.00126191    -0.22400
C154        C  0.48515514  0.12407395  0.00129943    -0.22400
C155        C  0.51825161  0.88691913  0.00643344    -0.22400
C156        C  0.47953548  0.88796384  0.00837167    -0.22400
C157        C  0.57215870  0.07232532  0.99906682    -0.17800
C158        C  0.56842442  0.93500173  0.99984819    -0.17800
C159        C  0.43155325  0.93853974  0.00385749    -0.17800
C160        C  0.43489309  0.07567089  0.99793266    -0.17800
H161        H  0.64536940  0.03798507  0.99884455     0.15100
H162        H  0.64333627  0.96475695  0.99901342     0.15100
H163        H  0.36176648  0.04497205  0.98413287     0.15100
H164        H  0.35990418  0.97175053  0.98784846     0.15100
H165        H  0.54247129  0.14719665  0.00270052     0.13400
H166        H  0.46778874  0.14903704  0.00261075     0.13400
H167        H  0.53555321  0.86188401  0.00733527     0.13400
H168        H  0.46113692  0.86386705  0.01066495     0.13400
H169        H  0.53023055  0.00469765  0.99492521     0.26700
H170        H  0.47136980  0.00665131  0.01407099     0.26700
O171        O  0.80384885  0.71619014  0.81777921    -0.78000
C172        C  0.71273278  0.79966611  0.83574652     0.83100
O173        O  0.69643258  0.67303315  0.74904573    -0.79100
O174        O  0.68345939  0.80586363  0.71717511    -0.80600
O175        O  0.81795820  0.80730117  0.71709039    -0.80400
O176        O  0.84044066  0.73037418  0.76885480    -0.79000
Zn177      Zn  0.75127921  0.73113518  0.80209220     1.55700
O178        O  0.76691862  0.84075679  0.73134776    -0.80400
Cd179      Cd  0.80263313  0.75351093  0.73188595     1.59700
Cd180      Cd  0.71867656  0.71784672  0.71791652     1.59600
O181        O  0.80755685  0.72311702  0.68410243    -0.80400
O182        O  0.75011910  0.75049477  0.75136304    -1.90900
Cd183      Cd  0.72909428  0.80212656  0.75185276     1.59900
O184        O  0.75148955  0.69726870  0.67370168    -0.80300
O185        O  0.71112252  0.81711666  0.80456401    -0.79000
C186        C  0.70018484  0.66464548  0.78367359     0.83500
C187        C  0.83587084  0.71651571  0.80149591     0.83200
O188        O  0.72861635  0.76772832  0.83865113    -0.78000
C189        C  0.80015975  0.83826538  0.71791094     0.84000
O190        O  0.72010617  0.68459459  0.80536955    -0.78000
C191        C  0.78595948  0.70267634  0.66465490     0.84100
C192        C  0.66508947  0.78335170  0.69668624     0.84500
O193        O  0.67449491  0.74890000  0.69449056    -0.80500
O194        O  0.16157080  0.73563849  0.77240138    -0.78000
C195        C  0.20004532  0.83954992  0.71387933     0.83100
O196        O  0.25062186  0.69644592  0.67938995    -0.79100
O197        O  0.31783528  0.80885507  0.72194541    -0.80600
O198        O  0.27267528  0.77658317  0.84175758    -0.80400
O199        O  0.19469919  0.72293186  0.82389313    -0.79000
Zn200      Zn  0.19828125  0.75643728  0.73467288     1.55700
O201        O  0.28604452  0.82546005  0.80491542    -0.80400
Cd202      Cd  0.24836622  0.73813103  0.80681241     1.59700
Cd203      Cd  0.28242205  0.72027109  0.72298953     1.59600
O204        O  0.28103916  0.69136108  0.81311545    -0.80400
O205        O  0.24934490  0.75499559  0.75364454    -1.90900
Cd206      Cd  0.26954841  0.80698840  0.75293276     1.59900
O207        O  0.30412937  0.67695259  0.75708279    -0.80300
O208        O  0.23268242  0.84377919  0.72783151    -0.79000
C209        C  0.21583779  0.70145154  0.67126816     0.83500
C210        C  0.16400930  0.72241584  0.80550928     0.83200
O211        O  0.18274138  0.80827707  0.71583605    -0.78000
C212        C  0.28725476  0.80874723  0.83648294     0.84000
O213        O  0.19478923  0.72256743  0.69082591    -0.78000
C214        C  0.30045715  0.67011698  0.79215840     0.84100
C215        C  0.33741984  0.78551410  0.70350371     0.84500
O216        O  0.32778926  0.75111587  0.70035590    -0.80500
O217        O  0.77065356  0.16779525  0.73277635    -0.78000
C218        C  0.72302023  0.20504864  0.84117390     0.83100
O219        O  0.67215999  0.24911761  0.69780945    -0.79100
O220        O  0.71585108  0.32114328  0.80679393    -0.80600
O221        O  0.83961618  0.28134753  0.76576856    -0.80400
O222        O  0.81939128  0.20340557  0.71555248    -0.79000
Zn223      Zn  0.73284944  0.20294161  0.75627172     1.55700
O224        O  0.80568500  0.29597318  0.81623719    -0.80400
Cd225      Cd  0.80104181  0.25590992  0.73103819     1.59700
Cd226      Cd  0.71299234  0.28504393  0.72009136     1.59600
O227        O  0.80077185  0.28635326  0.68287197    -0.80400
O228        O  0.74905158  0.25477832  0.75219067    -1.90900
Cd229      Cd  0.75218717  0.27683098  0.80292749     1.59900
O230        O  0.74261309  0.30937188  0.67492736    -0.80300
O231        O  0.73434234  0.23876791  0.84273217    -0.79000
C232        C  0.66535120  0.21458501  0.70476315     0.83500
C233        C  0.80287889  0.17184348  0.71739609     0.83200
O234        O  0.72183505  0.18792271  0.80996209    -0.78000
C235        C  0.83666823  0.29610675  0.79799094     0.84000
O236        O  0.68573141  0.19538562  0.72696677    -0.78000
C237        C  0.77689458  0.30532493  0.66429843     0.84100
C238        C  0.69074501  0.33649764  0.78654767     0.84500
O239        O  0.68558214  0.32637622  0.75260340    -0.80500
O240        O  0.23776809  0.26812028  0.65227010    -0.78000
C241        C  0.34304327  0.21352320  0.69156699     0.83100
O242        O  0.20171183  0.18002508  0.74848509    -0.79100
O243        O  0.31766850  0.22968124  0.80659357    -0.80600
O244        O  0.27663252  0.34549343  0.75421379    -0.80400
O245        O  0.21861563  0.31814844  0.68402094    -0.79000
Zn246      Zn  0.25910611  0.23284879  0.69113188     1.55700
O247        O  0.32848095  0.31329190  0.76752716    -0.80400
Cd248      Cd  0.23747031  0.30634678  0.73739378     1.59700
Cd249      Cd  0.22719273  0.22445283  0.77725054     1.59600
O250        O  0.19187786  0.31218460  0.77296813    -0.80400
O251        O  0.25859187  0.25485721  0.74058658    -1.90900
Cd252      Cd  0.31196645  0.25844736  0.75746874     1.59900
O253        O  0.18462393  0.25769245  0.80238951    -0.80300
O254        O  0.34868492  0.23113026  0.72186260    -0.79000
C255        C  0.20387414  0.17075774  0.71403665     0.83500
C256        C  0.22086353  0.29961296  0.65373129     0.83200
O257        O  0.31074325  0.21280917  0.67604650    -0.78000
C258        C  0.31040844  0.34425750  0.76608095     0.84000
O259        O  0.22453782  0.18919625  0.69127332    -0.78000
C260        C  0.17482720  0.29189857  0.79705030     0.84100
C261        C  0.29713970  0.20905288  0.82732261     0.84500
O262        O  0.26239278  0.20320332  0.81963739    -0.80500
O263        O  0.72841369  0.76865882  0.15989038    -0.78000
C264        C  0.83255730  0.71150325  0.19651336     0.83100
O265        O  0.69070325  0.67710968  0.25197216    -0.79100
O266        O  0.80586562  0.71864046  0.31173463    -0.80600
O267        O  0.77103604  0.84011983  0.27007415    -0.80400
O268        O  0.71894851  0.82150057  0.19120689    -0.79000
Zn269      Zn  0.74903802  0.73140617  0.19702486     1.55700
O270        O  0.82050703  0.80390135  0.28345123    -0.80400
Cd271      Cd  0.73306828  0.80470799  0.24488639     1.59700
Cd272      Cd  0.71588298  0.72120210  0.28196778     1.59600
O273        O  0.68509417  0.81087002  0.27571094    -0.80400
O274        O  0.74959072  0.75148916  0.24712885    -1.90900
Cd275      Cd  0.80248245  0.75172518  0.26541774     1.59900
O276        O  0.67271962  0.75595769  0.30291474    -0.80300
O277        O  0.83878244  0.72745298  0.22761898    -0.79000
C278        C  0.69374510  0.66867141  0.21734020     0.83500
C279        C  0.71683924  0.80240934  0.16128411     0.83200
O280        O  0.80018471  0.71174694  0.18119722    -0.78000
C281        C  0.80327997  0.83524057  0.28488344     0.84000
O282        O  0.71455657  0.68771051  0.19524762    -0.78000
C283        C  0.66484075  0.79051723  0.29711540     0.84100
C284        C  0.78369805  0.70057775  0.33329937     0.84500
O285        O  0.74825965  0.69896498  0.32667830    -0.80500
O286        O  0.27973573  0.82052389  0.19262195    -0.78000
C287        C  0.19582792  0.83696476  0.28525280     0.83100
O288        O  0.32532927  0.75160167  0.30003885    -0.79100
O289        O  0.19145359  0.72109320  0.31719173    -0.80600
O290        O  0.19180042  0.71852653  0.18125623    -0.80400
O291        O  0.26863774  0.76995939  0.15863000    -0.79000
Zn292      Zn  0.26487396  0.80410316  0.24552735     1.55700
O293        O  0.15718250  0.73041110  0.23213699    -0.80400
Cd294      Cd  0.24552299  0.73328450  0.19685726     1.59700
Cd295      Cd  0.27982112  0.71944471  0.28143309     1.59600
O296        O  0.27718975  0.68562964  0.19295199    -0.80400
O297        O  0.24698916  0.75278725  0.24880002    -1.90900
Cd298      Cd  0.19472028  0.75304941  0.26938702     1.59900
O299        O  0.30114202  0.67431706  0.24956720    -0.80300
O300        O  0.17807670  0.80597980  0.28574360    -0.79000
C301        C  0.33342491  0.78598509  0.29367711     0.83500
C302        C  0.28149521  0.80298972  0.16166233     0.83200
O303        O  0.22819260  0.84005391  0.26985317    -0.78000
C304        C  0.16057488  0.71795112  0.19894718     0.84000
O305        O  0.31226155  0.80730281  0.27435167    -0.78000
C306        C  0.29676159  0.66562295  0.21512197     0.84100
C307        C  0.21422126  0.70272634  0.33769715     0.84500
O308        O  0.24900268  0.69884874  0.32844555    -0.80500
O309        O  0.71708536  0.18011394  0.20274694    -0.78000
C310        C  0.80215958  0.16558451  0.29349210     0.83100
O311        O  0.67256424  0.25202829  0.30802538    -0.79100
O312        O  0.80843896  0.28462997  0.31484178    -0.80600
O313        O  0.80384105  0.28347895  0.18333004    -0.80400
O314        O  0.72740672  0.22944377  0.16564155    -0.79000
Zn315      Zn  0.73286637  0.19797654  0.25435088     1.55700
O316        O  0.84018164  0.26757412  0.23165448    -0.80400
Cd317      Cd  0.75071539  0.26761334  0.20124995     1.59700
Cd318      Cd  0.71792663  0.28384761  0.28583560     1.59600
O319        O  0.71816167  0.31436648  0.19645730    -0.80400
O320        O  0.75026214  0.24932098  0.25383329    -1.90900
Cd321      Cd  0.80313861  0.24846260  0.27163324     1.59900
O322        O  0.69630419  0.32894996  0.25278292    -0.80300
O323        O  0.81954268  0.19672064  0.29253728    -0.79000
C324        C  0.66519656  0.21712262  0.30403337     0.83500
C325        C  0.71499909  0.19642936  0.17091291     0.83200
O326        O  0.76953836  0.16218393  0.27907914    -0.78000
C327        C  0.83577400  0.28233188  0.19945651     0.84000
O328        O  0.68687876  0.19587434  0.28544166    -0.78000
C329        C  0.69955203  0.33600699  0.21762292     0.84100
C330        C  0.78689850  0.30363326  0.33582768     0.84500
O331        O  0.75135076  0.30585299  0.32952233    -0.80500
N332        N  0.99826179  0.00622371  0.56241906    -0.36100
N333        N  0.93964954  0.99799111  0.50551920    -0.56700
N334        N  0.99813831  0.99705793  0.44774478    -0.36100
N335        N  0.05707794  0.00197389  0.50478201    -0.56700
C336        C  0.96767373  0.00080375  0.58467519     0.27500
C337        C  0.02920187  0.00295840  0.58430801     0.27500
C338        C  0.96735474  0.99375576  0.42576450     0.27500
C339        C  0.02893872  0.99448305  0.42544119     0.27500
C340        C  0.91704782  0.00152827  0.53584330     0.36100
C341        C  0.91693427  0.99854999  0.47521476     0.36100
C342        C  0.07948114  0.00767433  0.53472433     0.36100
C343        C  0.07943891  0.00328873  0.47400501     0.36100
C344        C  0.97929857  0.99499979  0.62130205    -0.21400
C345        C  0.01797968  0.99636861  0.62109207    -0.21400
C346        C  0.97879523  0.98916584  0.38885867    -0.21400
C347        C  0.01745999  0.98949513  0.38864458    -0.21400
C348        C  0.87961484  0.00336748  0.52483409    -0.22400
C349        C  0.87954838  0.00148534  0.48645350    -0.22400
C350        C  0.11655372  0.01222256  0.52296350    -0.22400
C351        C  0.11652388  0.00946184  0.48451638    -0.22400
C352        C  0.92940261  0.00216106  0.57343227    -0.17800
C353        C  0.06733365  0.00672393  0.57260988    -0.17800
C354        C  0.06711005  0.99840782  0.43660257    -0.17800
C355        C  0.92914407  0.99615658  0.43749092    -0.17800
H356        H  0.96175217  0.99025726  0.64577214     0.15100
H357        H  0.03574898  0.99300755  0.64545939     0.15100
H358        H  0.96120575  0.98649304  0.36434540     0.15100
H359        H  0.03498488  0.98717591  0.36385828     0.15100
H360        H  0.85489398  0.00585944  0.54257960     0.13400
H361        H  0.85477012  0.00230061  0.46885497     0.13400
H362        H  0.14109051  0.01676077  0.54027996     0.13400
H363        H  0.14101834  0.01163916  0.46640491     0.13400
H364        H  0.99787882  0.01555502  0.53494356     0.26700
H365        H  0.99812742  0.00297738  0.47586414     0.26700
C366        C  0.12643658  0.03406377  0.35625922     0.03600
C367        C  0.10533342  0.03332556  0.38944652    -0.12500
C368        C  0.09540838  0.99897922  0.40599120     0.01100
C369        C  0.10754638  0.96527306  0.38970215    -0.11000
C370        C  0.12840393  0.96591524  0.35621080     0.03600
C371        C  0.13792150  0.00040549  0.33975165    -0.10400
H372        H  0.09606420  0.05935544  0.40201900     0.09200
H373        H  0.10010892  0.93873494  0.40267975     0.06800
H374        H  0.15500107  0.00107780  0.31446927     0.06600
O375        O  0.26659551  0.22767700  0.15655623    -0.78000
C376        C  0.16166108  0.28115302  0.18913920     0.83100
O377        O  0.30007966  0.32028633  0.24836399    -0.79100
O378        O  0.18441885  0.28067987  0.30460421    -0.80600
O379        O  0.22253915  0.15747689  0.26810700    -0.80400
O380        O  0.27430609  0.17438645  0.18866733    -0.79000
Zn381      Zn  0.24553127  0.26534459  0.19248473     1.55700
O382        O  0.17319881  0.19407008  0.28086554    -0.80400
Cd383      Cd  0.26109333  0.19210884  0.24221886     1.59700
Cd384      Cd  0.27549704  0.27568452  0.27815628     1.59600
O385        O  0.30924429  0.18624424  0.27345163    -0.80400
O386        O  0.24384064  0.24522592  0.24292828    -1.90900
Cd387      Cd  0.19075559  0.24530464  0.26055869     1.59900
O388        O  0.31790703  0.24142413  0.30108010    -0.80300
O389        O  0.15524615  0.26508275  0.22040744    -0.79000
C390        C  0.29822064  0.32960318  0.21380548     0.83500
C391        C  0.27701156  0.19355879  0.15855311     0.83200
O392        O  0.19458706  0.28305077  0.17498184    -0.78000
C393        C  0.19020102  0.16269962  0.28281169     0.84000
O394        O  0.27902303  0.31042665  0.19077660    -0.78000
C395        C  0.32733448  0.20723775  0.29572648     0.84100
C396        C  0.20636528  0.29741034  0.32685232     0.84500
O397        O  0.24208185  0.29807691  0.32156822    -0.80500
C398        C  0.03150536  0.35649014  0.13187984     0.03600
C399        C  0.03113116  0.38689581  0.10707021    -0.12500
C400        C  0.99673122  0.40083883  0.09375123     0.01100
C401        C  0.96266906  0.38434058  0.10537169    -0.11000
C402        C  0.96333393  0.35320993  0.12949720     0.03600
C403        C  0.99775449  0.33926414  0.14240936    -0.10400
H404        H  0.05745657  0.39950399  0.09795422     0.09200
H405        H  0.93600214  0.39548678  0.09551660     0.06800
H406        H  0.99822686  0.31524493  0.16122641     0.06600
C407        C  0.35765869  0.13897023  0.96089652     0.03600
C408        C  0.39091226  0.11755503  0.96220802    -0.12500
C409        C  0.40478747  0.10455982  0.99675551     0.01100
C410        C  0.38579659  0.11389583  0.02995352    -0.11000
C411        C  0.35267449  0.13535628  0.02869867     0.03600
C412        C  0.33880004  0.14797925  0.99419963    -0.10400
H413        H  0.40519335  0.10996984  0.93643841     0.09200
H414        H  0.39609825  0.10345591  0.05661177     0.06800
H415        H  0.31358574  0.16524060  0.99330638     0.06600
C416        C  0.53000217  0.15229419  0.36889021     0.03600
C417        C  0.53113602  0.12064332  0.39236605    -0.12500
C418        C  0.49771161  0.10175410  0.40201124     0.01100
C419        C  0.46305574  0.11453631  0.38777790    -0.11000
C420        C  0.46189180  0.14584493  0.36377594     0.03600
C421        C  0.49535145  0.16478507  0.35473570    -0.10400
H422        H  0.55796370  0.11055265  0.40290854     0.09200
H423        H  0.43717765  0.10013480  0.39527164     0.06800
H424        H  0.49456939  0.18860483  0.33570222     0.06600
C425        C  0.86450240  0.96326699  0.36051513     0.03600
C426        C  0.88910543  0.96274445  0.39108241    -0.12500
C427        C  0.90010280  0.99645437  0.40777337     0.01100
C428        C  0.88551382  0.03067041  0.39449135    -0.11000
C429        C  0.86000662  0.03123814  0.36458036     0.03600
C430        C  0.85011981  0.99750701  0.34734460    -0.10400
H431        H  0.90020921  0.93631421  0.40143505     0.09200
H432        H  0.89430654  0.05674250  0.40712997     0.06800
H433        H  0.83123014  0.99787565  0.32354827     0.06600
C434        C  0.65672727  0.13166326  0.97236243     0.03600
C435        C  0.62121609  0.11406954  0.97012443    -0.12500
C436        C  0.60353428  0.09964716  0.00245390     0.01100
C437        C  0.61925571  0.10646534  0.03776176    -0.11000
C438        C  0.65361831  0.12547042  0.04056775     0.03600
C439        C  0.67282154  0.13644184  0.00799805    -0.10400
H440        H  0.60770596  0.11043619  0.94333024     0.09200
H441        H  0.60495378  0.09672572  0.06289368     0.06800
H442        H  0.69985400  0.15022403  0.01084071     0.06600
C443        C  0.62835998  0.46814707  0.15216537     0.03600
C444        C  0.60637964  0.46794176  0.11942108    -0.12500
C445        C  0.59484631  0.50193810  0.10257818     0.01100
C446        C  0.60603209  0.53609403  0.11848202    -0.11000
C447        C  0.62870711  0.53631900  0.15062258     0.03600
C448        C  0.63950598  0.50239882  0.16733690    -0.10400
H449        H  0.59767213  0.44150327  0.10752171     0.09200
H450        H  0.59703669  0.56237385  0.10594535     0.06800
H451        H  0.65782072  0.50266832  0.19158476     0.06600
C452        C  0.84810780  0.37582744  0.46686772     0.03600
C453        C  0.88011325  0.39890233  0.46760896    -0.12500
C454        C  0.89644806  0.40884083  0.50192583     0.01100
C455        C  0.88061705  0.39494518  0.53561907    -0.11000
C456        C  0.84807950  0.37222746  0.53485464     0.03600
C457        C  0.83255155  0.36259733  0.50034056    -0.10400
H458        H  0.89229762  0.40906891  0.44156486     0.09200
H459        H  0.89362016  0.40178611  0.56205760     0.06800
H460        H  0.80849648  0.34388810  0.49947740     0.06600
C461        C  0.36522192  0.46486404  0.15151703     0.03600
C462        C  0.35558077  0.49890141  0.16838738    -0.12500
C463        C  0.36678017  0.53315146  0.15233087     0.01100
C464        C  0.38832726  0.53305882  0.11914650    -0.11000
C465        C  0.39930474  0.49898590  0.10263154     0.03600
C466        C  0.38761806  0.46494659  0.11897277    -0.10400
H467        H  0.33772093  0.49879277  0.19313906     0.09200
H468        H  0.39661516  0.55932160  0.10614966     0.06800
H469        H  0.39601765  0.43861889  0.10644480     0.06600
C470        C  0.03213892  0.64094472  0.13909546     0.03600
C471        C  0.03419721  0.61197709  0.11274690    -0.12500
C472        C  0.00091929  0.59612671  0.09865327     0.01100
C473        C  0.96569292  0.60943892  0.11103901    -0.11000
C474        C  0.96378182  0.63908188  0.13650718     0.03600
C475        C  0.99695954  0.65455577  0.15053430    -0.10400
H476        H  0.06144263  0.60208006  0.10302609     0.09200
H477        H  0.93995595  0.59775706  0.09979902     0.06800
H478        H  0.99538256  0.67774791  0.16996002     0.06600
C479        C  0.35237477  0.87312291  0.03280068     0.03600
C480        C  0.34016335  0.86082556  0.99770982    -0.12500
C481        C  0.35795510  0.87331826  0.96481392     0.01100
C482        C  0.38872702  0.89769184  0.96703179    -0.11000
C483        C  0.40096668  0.91041179  0.00200948     0.03600
C484        C  0.38295239  0.89790579  0.03488017    -0.10400
H485        H  0.31681487  0.84132654  0.99600408     0.09200
H486        H  0.40279662  0.90718396  0.94167555     0.06800
H487        H  0.39300001  0.90711888  0.06189222     0.06600
C488        C  0.46332084  0.85860987  0.35657208     0.03600
C489        C  0.46131619  0.88879062  0.38154280    -0.12500
C490        C  0.49459678  0.90548821  0.39459692     0.01100
C491        C  0.52980696  0.89250290  0.38187562    -0.11000
C492        C  0.53169203  0.86296523  0.35633825     0.03600
C493        C  0.49855046  0.84610990  0.34396819    -0.10400
H494        H  0.43416161  0.89904846  0.39107269     0.09200
H495        H  0.55555976  0.90480208  0.39240939     0.06800
H496        H  0.50021506  0.82290653  0.32455808     0.06600
C497        C  0.15029393  0.63191876  0.54052166     0.03600
C498        C  0.11890111  0.60782727  0.53974468    -0.12500
C499        C  0.10375549  0.59619360  0.50529390     0.01100
C500        C  0.12029344  0.60913014  0.47157933    -0.11000
C501        C  0.15174444  0.63316347  0.47222534     0.03600
C502        C  0.16626821  0.64449877  0.50671173    -0.10400
H503        H  0.10614738  0.59835142  0.56576794     0.09200
H504        H  0.10871641  0.60049675  0.44498165     0.06800
H505        H  0.18986731  0.66378538  0.50725350     0.06600
C506        C  0.64348295  0.86875367  0.96437216     0.03600
C507        C  0.61171728  0.89219951  0.96520084    -0.12500
C508        C  0.59797974  0.90562436  0.99951964     0.01100
C509        C  0.61520454  0.89438755  0.03312994    -0.11000
C510        C  0.64681201  0.87073994  0.03229116     0.03600
C511        C  0.66083295  0.85819374  0.99795443    -0.10400
H512        H  0.59787407  0.90026174  0.93938326     0.09200
H513        H  0.60423586  0.90426440  0.05967444     0.06800
H514        H  0.68496387  0.83943176  0.99742002     0.06600
C515        C  0.14136756  0.36579486  0.45848568     0.03600
C516        C  0.15751422  0.35248993  0.49163046    -0.12500
C517        C  0.14312721  0.36319001  0.52643904     0.01100
C518        C  0.11175288  0.38725854  0.52816200    -0.11000
C519        C  0.09533414  0.40118933  0.49504397     0.03600
C520        C  0.11005349  0.39004756  0.46009876    -0.10400
H521        H  0.18149978  0.33357861  0.49031195     0.09200
H522        H  0.10059915  0.39574835  0.55511012     0.06800
H523        H  0.09772314  0.40074483  0.43443728     0.06600
C524        C  0.97145632  0.35802561  0.86284169     0.03600
C525        C  0.97132496  0.38976991  0.88566037    -0.12500
C526        C  0.00516026  0.40363185  0.90017736     0.01100
C527        C  0.03942386  0.38568969  0.89129772    -0.11000
C528        C  0.04011474  0.35417503  0.86763062     0.03600
C529        C  0.00582062  0.34090484  0.85318492    -0.10400
H530        H  0.94478241  0.40298434  0.89311661     0.09200
H531        H  0.06544269  0.39599126  0.90322023     0.06800
H532        H  0.00579510  0.31741159  0.83414912     0.06600
C533        C  0.13224632  0.04001867  0.64968173     0.03600
C534        C  0.10715393  0.04050052  0.61934136    -0.12500
C535        C  0.09623637  0.00678839  0.60250062     0.01100
C536        C  0.10993451  0.97256770  0.61652140    -0.11000
C537        C  0.13360188  0.97185278  0.64779904     0.03600
C538        C  0.14489156  0.00559142  0.66412825    -0.10400
H539        H  0.09645293  0.06695576  0.60865401     0.09200
H540        H  0.10139173  0.94651365  0.60367776     0.06800
H541        H  0.16430895  0.00507823  0.68750542     0.06600
C542        C  0.54186023  0.13988595  0.63168775     0.03600
C543        C  0.54273907  0.10807503  0.60861561    -0.12500
C544        C  0.50876494  0.09246539  0.59566478     0.01100
C545        C  0.47410772  0.10841986  0.60647683    -0.11000
C546        C  0.47335005  0.14026200  0.62911363     0.03600
C547        C  0.50708400  0.15558585  0.64175996    -0.10400
H548        H  0.56946725  0.09568046  0.60057814     0.09200
H549        H  0.44789827  0.09683043  0.59623107     0.06800
H550        H  0.50623920  0.17980118  0.65995221     0.06600
C551        C  0.37214310  0.47003310  0.84857928     0.03600
C552        C  0.38998406  0.46674839  0.88380752    -0.12500
C553        C  0.39993108  0.49911417  0.90409478     0.01100
C554        C  0.38977736  0.53469371  0.88995483    -0.11000
C555        C  0.37248142  0.53813540  0.85484340     0.03600
C556        C  0.36432502  0.50603510  0.83452125    -0.10400
H557        H  0.39667030  0.43947828  0.89532903     0.09200
H558        H  0.39698152  0.55968738  0.90540352     0.06800
H559        H  0.35053271  0.50933233  0.80765764     0.06600
C560        C  0.85801974  0.97204423  0.64683046     0.03600
C561        C  0.88496183  0.97053409  0.61801515    -0.12500
C562        C  0.90028693  0.00372879  0.60325710     0.01100
C563        C  0.88853769  0.03850482  0.61731820    -0.11000
C564        C  0.86130581  0.04010460  0.64586615     0.03600
C565        C  0.84676158  0.00681548  0.66100539    -0.10400
H566        H  0.89423985  0.94365809  0.60735199     0.09200
H567        H  0.90076239  0.06413906  0.60626608     0.06800
H568        H  0.82680301  0.00800775  0.68407839     0.06600
C569        C  0.03396229  0.64858785  0.86761873     0.03600
C570        C  0.03488462  0.61817892  0.89265079    -0.12500
C571        C  0.00118320  0.60048181  0.90350662     0.01100
C572        C  0.96660254  0.61329341  0.88909761    -0.11000
C573        C  0.96594364  0.64346896  0.86372437     0.03600
C574        C  0.99958618  0.66092663  0.85312010    -0.10400
H575        H  0.06160126  0.60850851  0.90382856     0.09200
H576        H  0.94044307  0.60019007  0.89792791     0.06800
H577        H  0.99899926  0.68432197  0.83353712     0.06600
C578        C  0.46635065  0.84703619  0.62563529     0.03600
C579        C  0.46500923  0.87913491  0.60253122    -0.12500
C580        C  0.49868064  0.89540375  0.58907068     0.01100
C581        C  0.53354868  0.87961467  0.59945782    -0.11000
C582        C  0.53470191  0.84808029  0.62321754     0.03600
C583        C  0.50115864  0.83158531  0.63541465    -0.10400
H584        H  0.43803909  0.89145645  0.59520510     0.09200
H585        H  0.55960801  0.89210258  0.58949385     0.06800
H586        H  0.50217729  0.80766906  0.65434995     0.06600
C587        C  0.62293457  0.46807563  0.85215987     0.03600
C588        C  0.60086853  0.46932430  0.88501836    -0.12500
C589        C  0.59481494  0.50324163  0.90396669     0.01100
C590        C  0.61053795  0.53654102  0.88933543    -0.11000
C591        C  0.63268162  0.53552361  0.85651912     0.03600
C592        C  0.63911377  0.50133323  0.83860348    -0.10400
H593        H  0.58769970  0.44394734  0.89558193     0.09200
H594        H  0.60482585  0.56306968  0.90282957     0.06800
H595        H  0.65743815  0.50068560  0.81426227     0.06600
C596        C  0.85737112  0.63871370  0.46487796     0.03600
C597        C  0.88844540  0.61415709  0.46597451    -0.12500
C598        C  0.90461605  0.60376733  0.50050636     0.01100
C599        C  0.88946328  0.61825707  0.53390858    -0.11000
C600        C  0.85830324  0.64262768  0.53278349     0.03600
C601        C  0.84216712  0.65224834  0.49836222    -0.10400
H602        H  0.89960366  0.60268485  0.44017335     0.09200
H603        H  0.90126524  0.60986628  0.56064028     0.06800
H604        H  0.81798598  0.67093579  0.49759830     0.06600
C605        C  0.20042775  0.35162939  0.37008672    -0.05300
C606        C  0.18917167  0.31533053  0.36018918     0.00700
C607        C  0.16129559  0.29661587  0.38214363    -0.07900
C608        C  0.14538503  0.31530632  0.41286990    -0.05300
C609        C  0.15645958  0.35154056  0.42267263     0.00700
C610        C  0.18466971  0.37016249  0.40121039    -0.07800
C611        C  0.19966905  0.40897638  0.40983337     0.62600
H612        H  0.22175955  0.36571579  0.35329722     0.13300
H613        H  0.12440430  0.30139850  0.43019930     0.13300
C614        C  0.14916847  0.25650845  0.37430502     0.62800
F615        F  0.23825830  0.40691278  0.41516592    -0.22400
F616        F  0.18375255  0.42468057  0.44141400    -0.19700
F617        F  0.19251823  0.43257975  0.37977031    -0.19400
F618        F  0.18059422  0.23370120  0.37059931    -0.19400
F619        F  0.12813863  0.25540176  0.34181746    -0.19800
F620        F  0.12711456  0.24188004  0.40297173    -0.22400
C621        C  0.30006144  0.38231557  0.16840399    -0.05300
C622        C  0.31705924  0.36425769  0.19927398     0.00700
C623        C  0.35077996  0.37953697  0.21429926    -0.07900
C624        C  0.36636183  0.41192787  0.19728100    -0.05300
C625        C  0.34906802  0.42955477  0.16655461     0.00700
C626        C  0.31513718  0.41500248  0.15217076    -0.07800
C627        C  0.29448798  0.43462266  0.12032620     0.62600
H628        H  0.27409751  0.37101185  0.15737346     0.13300
H629        H  0.39190744  0.42424955  0.20821336     0.13300
C630        C  0.37039929  0.36204299  0.24790215     0.62800
F631        F  0.26120762  0.41664188  0.11133415    -0.22400
F632        F  0.31710188  0.43546184  0.08867740    -0.19700
F633        F  0.28564803  0.47094661  0.13051534    -0.19400
F634        F  0.37751011  0.32449359  0.24137912    -0.19400
F635        F  0.34780141  0.36565822  0.27936773    -0.19800
F636        F  0.40451792  0.37923769  0.25528336    -0.22400
C637        C  0.38372423  0.16617513  0.29440583    -0.05300
C638        C  0.36069823  0.19087299  0.31495689     0.00700
C639        C  0.36877261  0.19706293  0.35332042    -0.07900
C640        C  0.40206089  0.18163128  0.36851226    -0.05300
C641        C  0.42593897  0.15871481  0.34718897     0.00700
C642        C  0.41586918  0.14929635  0.31020547    -0.07800
C643        C  0.43868407  0.12095412  0.28798106     0.62600
H644        H  0.37647364  0.16034349  0.26559620     0.13300
H645        H  0.40982346  0.18743257  0.39719867     0.13300
C646        C  0.34154786  0.21798694  0.37863761     0.62800
F647        F  0.47452780  0.13463422  0.28109611    -0.22400
F648        F  0.42208504  0.11304030  0.25392732    -0.19700
F649        F  0.44138474  0.08777923  0.30813769    -0.19400
F650        F  0.30554612  0.20365162  0.37462425    -0.19400
F651        F  0.34142066  0.25569414  0.36949488    -0.19800
F652        F  0.35137082  0.21436530  0.41598569    -0.22400
C653        C  0.35057838  0.17494003  0.08428441    -0.05300
C654        C  0.33353332  0.14650301  0.06360129     0.00700
C655        C  0.29824314  0.13164206  0.07532379    -0.07900
C656        C  0.27980243  0.14809741  0.10613816    -0.05300
C657        C  0.29656553  0.17730728  0.12610915     0.00700
C658        C  0.33297739  0.19015389  0.11595445    -0.07800
C659        C  0.35361798  0.21896218  0.13935934     0.62600
H660        H  0.37778842  0.18542433  0.07509676     0.13300
H661        H  0.25238456  0.13777732  0.11496562     0.13300
C662        C  0.27936471  0.09833824  0.05697791     0.62800
F663        F  0.38982029  0.22540763  0.12615459    -0.22400
F664        F  0.35623816  0.20614575  0.17594339    -0.19700
F665        F  0.33436512  0.25271020  0.13880150    -0.19400
F666        F  0.26885244  0.07261977  0.08428854    -0.19400
F667        F  0.30265033  0.07996112  0.03190756    -0.19800
F668        F  0.24741868  0.11036231  0.03829937    -0.22400
C669        C  0.08837690  0.31863775  0.12112849    -0.05300
C670        C  0.06714641  0.34095926  0.14558997     0.00700
C671        C  0.07844243  0.34553710  0.18313040    -0.07900
C672        C  0.10975224  0.32529869  0.19570990    -0.05300
C673        C  0.13031840  0.30172810  0.17179837     0.00700
C674        C  0.12038837  0.29896330  0.13357377    -0.07800
C675        C  0.14237796  0.27454656  0.10652876     0.62600
H676        H  0.07901086  0.31608201  0.09241953     0.13300
H677        H  0.11862510  0.32782049  0.22458747     0.13300
C678        C  0.05815960  0.37224928  0.20947471     0.62800
F679        F  0.12584589  0.27387049  0.07146190    -0.22400
F680        F  0.14392145  0.23816681  0.12010155    -0.19700
F681        F  0.17860165  0.28826565  0.10229293    -0.19400
F682        F  0.07558298  0.37396256  0.24406959    -0.19400
F683        F  0.02137574  0.36079838  0.21531446    -0.19800
F684        F  0.05810133  0.40792441  0.19404059    -0.22400
C685        C  0.13507450  0.12240789  0.29714356    -0.05300
C686        C  0.17280310  0.13179724  0.30419733     0.00700
C687        C  0.19318936  0.11217985  0.33227816    -0.07900
C688        C  0.17639799  0.08090773  0.34940171    -0.05300
C689        C  0.13977758  0.06981729  0.34031078     0.00700
C690        C  0.11799164  0.09148666  0.31505159    -0.07800
C691        C  0.07735299  0.08142000  0.30667362     0.62600
H692        H  0.11952880  0.13876043  0.27668063     0.13300
H693        H  0.19212090  0.06422868  0.36949326     0.13300
C694        C  0.23227526  0.12432873  0.34461979     0.62800
F695        F  0.06086319  0.10686082  0.28221799    -0.22400
F696        F  0.05645962  0.08121619  0.33948822    -0.19700
F697        F  0.07590137  0.04626669  0.29070559    -0.19400
F698        F  0.23302573  0.16269860  0.35004957    -0.19400
F699        F  0.25863536  0.11474775  0.31766324    -0.19800
F700        F  0.24252565  0.10727736  0.37803770    -0.22400
C701        C  0.78400739  0.35283397  0.38511590    -0.05300
C702        C  0.80417956  0.32320549  0.36842903     0.00700
C703        C  0.83992177  0.31250218  0.38388567    -0.07900
C704        C  0.85398642  0.33256442  0.41443936    -0.05300
C705        C  0.83328602  0.36111173  0.43136143     0.00700
C706        C  0.79767921  0.37152479  0.41691084    -0.07800
C707        C  0.77385878  0.40147816  0.43567747     0.62600
H708        H  0.75684541  0.36068511  0.37369612     0.13300
H709        H  0.88091965  0.32507164  0.42667155     0.13300
C710        C  0.86299913  0.27916306  0.37007939     0.62800
F711        F  0.79548166  0.43291566  0.44248573    -0.22400
F712        F  0.75975673  0.38781608  0.46925700    -0.19700
F713        F  0.74367712  0.41225928  0.41358534    -0.19400
F714        F  0.87726239  0.28665702  0.33476531    -0.19400
F715        F  0.84075216  0.24736195  0.36930066    -0.19800
F716        F  0.89340914  0.27130318  0.39309687    -0.22400
C717        C  0.67471719  0.41689805  0.15029044    -0.05300
C718        C  0.64383209  0.43300594  0.16847150     0.00700
C719        C  0.63097660  0.41763743  0.20286474    -0.07900
C720        C  0.65007495  0.38632253  0.21823174    -0.05300
C721        C  0.68134777  0.36987345  0.20011746     0.00700
C722        C  0.69405282  0.38579429  0.16529030    -0.07800
C723        C  0.72833200  0.37127188  0.14381071     0.62600
H724        H  0.68397167  0.42959684  0.12417146     0.13300
H725        H  0.64031941  0.37416799  0.24439904     0.13300
C726        C  0.59654861  0.43374498  0.22248548     0.62800
F727        F  0.73810645  0.39456142  0.11411960    -0.22400
F728        F  0.72066005  0.33635014  0.12912562    -0.19700
F729        F  0.75922557  0.36909760  0.16729402    -0.19400
F730        F  0.56596118  0.43262276  0.19859373    -0.19400
F731        F  0.60310767  0.47048923  0.23253508    -0.19800
F732        F  0.58743350  0.41374904  0.25463528    -0.22400
C733        C  0.65274917  0.17502980  0.08755963    -0.05300
C734        C  0.66674187  0.13996999  0.07687246     0.00700
C735        C  0.69523716  0.12230669  0.09832000    -0.07900
C736        C  0.70945283  0.14102888  0.12985599    -0.05300
C737        C  0.69691166  0.17711105  0.13929293     0.00700
C738        C  0.66753348  0.19425280  0.11830335    -0.07800
C739        C  0.65191733  0.23279131  0.12783956     0.62600
H740        H  0.63116414  0.18803645  0.07038977     0.13300
H741        H  0.73157468  0.12830259  0.14651758     0.13300
C742        C  0.71087413  0.08432831  0.08743895     0.62800
F743        F  0.61934942  0.24085421  0.10801689    -0.22400
F744        F  0.67832709  0.25995982  0.11902168    -0.19700
F745        F  0.64320247  0.23455350  0.16559600    -0.19400
F746        F  0.72771533  0.08667866  0.05249285    -0.19400
F747        F  0.68191159  0.05846116  0.08636919    -0.19800
F748        F  0.73761877  0.07158530  0.11270191    -0.22400
C749        C  0.79472385  0.11084307  0.33565285    -0.05300
C750        C  0.81896207  0.13281318  0.31326406     0.00700
C751        C  0.85760701  0.12260314  0.31012504    -0.07900
C752        C  0.87012512  0.08973469  0.32840031    -0.05300
C753        C  0.84544476  0.06717056  0.34944553     0.00700
C754        C  0.80737683  0.07824767  0.35413690    -0.07800
C755        C  0.78044368  0.05602043  0.37895750     0.62600
H756        H  0.76551085  0.11942368  0.33846744     0.13300
H757        H  0.89922232  0.08074827  0.32566998     0.13300
C758        C  0.88515429  0.14505628  0.28625295     0.62800
F759        F  0.74583972  0.07376096  0.38265025    -0.22400
F760        F  0.79571173  0.05181662  0.41433678    -0.19700
F761        F  0.77423728  0.02103690  0.36386470    -0.19400
F762        F  0.89020641  0.18022850  0.30141958    -0.19400
F763        F  0.87134237  0.14862388  0.25022517    -0.19800
F764        F  0.92019116  0.12791652  0.28416714    -0.22400
C765        C  0.61659939  0.21403397  0.35480972    -0.05300
C766        C  0.63049121  0.20015773  0.32059472     0.00700
C767        C  0.61114722  0.16996506  0.30297471    -0.07900
C768        C  0.57877037  0.15523018  0.32030608    -0.05300
C769        C  0.56526141  0.16898251  0.35429512     0.00700
C770        C  0.58430256  0.19856009  0.37222890    -0.07800
C771        C  0.57045674  0.21332171  0.40956612     0.62600
H772        H  0.63160461  0.23669185  0.36812983     0.13300
H773        H  0.56350001  0.13243334  0.30747013     0.13300
C774        C  0.62376192  0.15309639  0.26584778     0.62800
F775        F  0.59262288  0.24245330  0.42226099    -0.22400
F776        F  0.57129797  0.18482962  0.43604816    -0.19700
F777        F  0.53384060  0.22632437  0.40606540    -0.19400
F778        F  0.65659384  0.13265873  0.27095990    -0.19400
F779        F  0.62973637  0.18114494  0.23952265    -0.19800
F780        F  0.59699000  0.12903515  0.25140473    -0.22400
C781        C  0.87684301  0.29246008  0.14398535    -0.05300
C782        C  0.86821733  0.30088388  0.18140957     0.00700
C783        C  0.88931132  0.32852652  0.20052132    -0.07900
C784        C  0.91920233  0.34605646  0.18165208    -0.05300
C785        C  0.92848689  0.33687019  0.14477499     0.00700
C786        C  0.90733024  0.30976243  0.12536107    -0.07800
C787        C  0.91771298  0.29869782  0.08569046     0.62600
H788        H  0.86001909  0.27166320  0.12979444     0.13300
H789        H  0.93637135  0.36658525  0.19586295     0.13300
C790        C  0.88020238  0.33997591  0.24048470     0.62800
F791        F  0.89398477  0.27125811  0.07208389    -0.22400
F792        F  0.95424624  0.28496321  0.08483631    -0.19700
F793        F  0.91522662  0.32963337  0.06227306    -0.19400
F794        F  0.88817205  0.31062476  0.26460805    -0.19400
F795        F  0.84245585  0.34953318  0.24353771    -0.19800
F796        F  0.90127098  0.37052772  0.25164595    -0.22400
C797        C  0.21111785  0.64966490  0.38387386    -0.05300
C798        C  0.19904479  0.68575657  0.37309386     0.00700
C799        C  0.17173005  0.70455548  0.39572577    -0.07900
C800        C  0.15676136  0.68594251  0.42736671    -0.05300
C801        C  0.16791505  0.64956395  0.43726538     0.00700
C802        C  0.19589218  0.63117876  0.41568691    -0.07800
C803        C  0.20956609  0.59230635  0.42654923     0.62600
H804        H  0.23206207  0.63570929  0.36671598     0.13300
H805        H  0.13586826  0.69967338  0.44479950     0.13300
C806        C  0.15860717  0.74440791  0.38731089     0.62800
F807        F  0.17967764  0.56747760  0.42604561    -0.22400
F808        F  0.22465515  0.59300485  0.46219567    -0.19700
F809        F  0.23707586  0.57931184  0.40220503    -0.19400
F810        F  0.13551242  0.74468612  0.35620265    -0.19400
F811        F  0.18939465  0.76740488  0.38087819    -0.19800
F812        F  0.13822417  0.75941729  0.41682114    -0.22400
C813        C  0.37541263  0.79829308  0.34735047    -0.05300
C814        C  0.36815791  0.80244990  0.30896740     0.00700
C815        C  0.39291495  0.82408740  0.28619776    -0.07900
C816        C  0.42278796  0.84299335  0.30332994    -0.05300
C817        C  0.42915602  0.84020306  0.34195780     0.00700
C818        C  0.40592096  0.81667754  0.36435322    -0.07800
C819        C  0.41363363  0.81049357  0.40573039     0.62600
H820        H  0.35637857  0.78127690  0.36409171     0.13300
H821        H  0.44169728  0.86016374  0.28657365     0.13300
C822        C  0.38863690  0.82650590  0.24385351     0.62800
F823        F  0.39079779  0.78276324  0.42086839    -0.22400
F824        F  0.40687744  0.84322119  0.42511352    -0.19700
F825        F  0.45078361  0.79968471  0.41082663    -0.19400
F826        F  0.35859573  0.84958598  0.23480357    -0.19400
F827        F  0.38256707  0.79117891  0.22933036    -0.19800
F828        F  0.42070651  0.84093578  0.22680962    -0.22400
C829        C  0.34270613  0.81932724  0.07506781    -0.05300
C830        C  0.33500053  0.85701046  0.06705012     0.00700
C831        C  0.30988101  0.87734696  0.09024414    -0.07900
C832        C  0.29291666  0.85878037  0.12098558    -0.05300
C833        C  0.30011590  0.82074113  0.12871002     0.00700
C834        C  0.32610010  0.80075011  0.10576911    -0.07800
C835        C  0.33750580  0.76038483  0.11407162     0.62600
H836        H  0.36195275  0.80446275  0.05672983     0.13300
H837        H  0.27354520  0.87375917  0.13906990     0.13300
C838        C  0.30065307  0.91817330  0.08215763     0.62800
F839        F  0.36755340  0.74896655  0.09194431    -0.22400
F840        F  0.30759747  0.73663758  0.10719778    -0.19700
F841        F  0.34839574  0.75682383  0.15109559    -0.19400
F842        F  0.28776876  0.92213023  0.04582552    -0.19400
F843        F  0.33261231  0.93978542  0.08658594    -0.19800
F844        F  0.27302612  0.93169968  0.10608276    -0.22400
C845        C  0.11015726  0.67149936  0.20391517    -0.05300
C846        C  0.12796450  0.69914869  0.18208328     0.00700
C847        C  0.11495896  0.70704234  0.14541798    -0.07900
C848        C  0.08415002  0.68646265  0.13176541    -0.05300
C849        C  0.06642768  0.65881588  0.15376114     0.00700
C850        C  0.07951292  0.65101495  0.19034510    -0.07800
C851        C  0.06136187  0.62100100  0.21479885     0.62600
H852        H  0.12077863  0.66583502  0.23180443     0.13300
H853        H  0.07315744  0.69220256  0.10404236     0.13300
C854        C  0.13242413  0.73796316  0.12160512     0.62800
F855        F  0.08042049  0.61603219  0.24825515    -0.22400
F856        F  0.06153258  0.58719140  0.19610580    -0.19700
F857        F  0.02457577  0.63093127  0.22316630    -0.19400
F858        F  0.16891641  0.72832207  0.11170887    -0.19400
F859        F  0.13291682  0.77107155  0.14154819    -0.19800
F860        F  0.11229986  0.74422315  0.08900308    -0.22400
C861        C  0.35341126  0.62561674  0.20439255    -0.05300
C862        C  0.31446068  0.63129098  0.19965082     0.00700
C863        C  0.29337910  0.60521423  0.17837570    -0.07900
C864        C  0.31198049  0.57388796  0.16342600    -0.05300
C865        C  0.35084617  0.56837396  0.16773334     0.00700
C866        C  0.37226552  0.59479732  0.18805745    -0.07800
C867        C  0.41462677  0.59045708  0.19245637     0.62600
H868        H  0.36912262  0.64616140  0.22010568     0.13300
H869        H  0.29630789  0.55339266  0.14758795     0.13300
C870        C  0.25134097  0.61010224  0.17132260     0.62800
F871        F  0.43196113  0.59231901  0.15773645    -0.22400
F872        F  0.42278508  0.55627187  0.20907138    -0.19700
F873        F  0.42972937  0.61844909  0.21443878    -0.19400
F874        F  0.24554659  0.63967081  0.14673103    -0.19400
F875        F  0.23259513  0.61704079  0.20463842    -0.19800
F876        F  0.23558510  0.57841111  0.15567005    -0.22400
C877        C  0.18214595  0.92387018  0.34500893    -0.05300
C878        C  0.14368579  0.93108042  0.33983966     0.00700
C879        C  0.12171890  0.90645142  0.31803252    -0.07900
C880        C  0.13985706  0.87614187  0.30030452    -0.05300
C881        C  0.17880526  0.86973412  0.30426394     0.00700
C882        C  0.20006426  0.89301873  0.32835543    -0.07800
C883        C  0.24098845  0.88462829  0.33797102     0.62600
H884        H  0.19813367  0.94289680  0.36229779     0.13300
H885        H  0.12380023  0.85736447  0.28283618     0.13300
C886        C  0.07960851  0.91250465  0.31308991     0.62800
F887        F  0.25360972  0.90662739  0.36712613    -0.22400
F888        F  0.26381478  0.89153697  0.30720193    -0.19700
F889        F  0.24470646  0.84751468  0.34895427    -0.19400
F890        F  0.07315176  0.94691612  0.29619479    -0.19400
F891        F  0.06174044  0.91156041  0.34757652    -0.19800
F892        F  0.06359785  0.88504070  0.29107848    -0.22400
C893        C  0.83652799  0.69674446  0.37832192    -0.05300
C894        C  0.80119317  0.68255944  0.36707711     0.00700
C895        C  0.78566556  0.65160650  0.38713716    -0.07900
C896        C  0.80554022  0.63715717  0.41833297    -0.05300
C897        C  0.84061830  0.65169690  0.42912875     0.00700
C898        C  0.85671738  0.68159190  0.40856285    -0.07800
C899        C  0.89504859  0.69762026  0.41865143     0.62600
H900        H  0.84856907  0.72025010  0.36316761     0.13300
H901        H  0.79366246  0.61452680  0.43495763     0.13300
C902        C  0.74895209  0.63329608  0.37558151     0.62800
F903        F  0.92248167  0.67036412  0.41435143    -0.22400
F904        F  0.89487510  0.70957861  0.45533781    -0.19700
F905        F  0.90473013  0.72790054  0.39612326    -0.19400
F906        F  0.75109491  0.62288366  0.33837542    -0.19400
F907        F  0.71929013  0.65805403  0.38053186    -0.19800
F908        F  0.74136126  0.60140679  0.39661800    -0.22400
C909        C  0.69456498  0.61626600  0.17272378    -0.05300
C910        C  0.67486791  0.63509687  0.20136245     0.00700
C911        C  0.63824148  0.62243682  0.21173397    -0.07900
C912        C  0.62347643  0.59045863  0.19386034    -0.05300
C913        C  0.64378501  0.57165831  0.16582081     0.00700
C914        C  0.67962295  0.58488432  0.15467482    -0.07800
C915        C  0.70205758  0.56560287  0.12391543     0.62600
H916        H  0.72236371  0.62611243  0.16474402     0.13300
H917        H  0.59607110  0.57956724  0.20186127     0.13300
C918        C  0.61433467  0.64300301  0.24040432     0.62800
F919        F  0.73576492  0.58373771  0.11636489    -0.22400
F920        F  0.68120097  0.56518569  0.09127701    -0.19700
F921        F  0.71032068  0.52915572  0.13453286    -0.19400
F922        F  0.61083874  0.68029364  0.23002754    -0.19400
F923        F  0.63093884  0.64053084  0.27528844    -0.19800
F924        F  0.57839658  0.62805272  0.24329930    -0.22400
C925        C  0.65456563  0.81833873  0.07620881    -0.05300
C926        C  0.66340451  0.85545222  0.06695684     0.00700
C927        C  0.68978882  0.87544491  0.08857156    -0.07900
C928        C  0.70700323  0.85703098  0.11906579    -0.05300
C929        C  0.69884409  0.81943292  0.12791152     0.00700
C930        C  0.67160615  0.79981511  0.10652771    -0.07800
C931        C  0.65960616  0.75988662  0.11588784     0.62600
H932        H  0.63440509  0.80376425  0.05888134     0.13300
H933        H  0.72735256  0.87173646  0.13603325     0.13300
C934        C  0.70003745  0.91567026  0.07896853     0.62800
F935        F  0.62893265  0.74877448  0.09482357    -0.22400
F936        F  0.64939370  0.75717648  0.15326081    -0.19700
F937        F  0.68896910  0.73538706  0.10856478    -0.19400
F938        F  0.66819791  0.93805034  0.08088979    -0.19400
F939        F  0.71486253  0.91751936  0.04309657    -0.19800
F940        F  0.72652437  0.92990708  0.10340981    -0.22400
C941        C  0.61672724  0.84100889  0.29641312    -0.05300
C942        C  0.63114204  0.80868728  0.31451213     0.00700
C943        C  0.61440667  0.79675883  0.34885535    -0.07900
C944        C  0.58246278  0.81612855  0.36222535    -0.05300
C945        C  0.56805056  0.84761860  0.34348780     0.00700
C946        C  0.58593466  0.86116785  0.31079728    -0.07800
C947        C  0.57270714  0.89701857  0.29163206     0.62600
H948        H  0.62978609  0.85060471  0.27061507     0.13300
H949        H  0.56800872  0.80657457  0.38733201     0.13300
C950        C  0.63035721  0.76466601  0.37203957     0.62800
F951        F  0.59430539  0.90563265  0.26031819    -0.22400
F952        F  0.57544160  0.92654078  0.31636175    -0.19700
F953        F  0.53558652  0.89346347  0.28046383    -0.19400
F954        F  0.66834796  0.77060603  0.37840957    -0.19400
F955        F  0.62550241  0.73118981  0.35343617    -0.19800
F956        F  0.61260894  0.76160038  0.40657054    -0.22400
C957        C  0.85626125  0.87913718  0.29637603    -0.05300
C958        C  0.82003964  0.86641573  0.30607433     0.00700
C959        C  0.80053858  0.88294848  0.33663051    -0.07900
C960        C  0.81660071  0.91409059  0.35423260    -0.05300
C961        C  0.85179455  0.92807794  0.34319034     0.00700
C962        C  0.87269970  0.90984669  0.31475462    -0.07800
C963        C  0.91190956  0.92311283  0.30387676     0.62600
H964        H  0.87121803  0.86527777  0.27384646     0.13300
H965        H  0.80156057  0.92819677  0.37657523     0.13300
C966        C  0.76355380  0.86706189  0.35149433     0.62800
F967        F  0.92734893  0.90171393  0.27545018    -0.22400
F968        F  0.93549485  0.92052957  0.33453085    -0.19700
F969        F  0.91040307  0.95998732  0.29172690    -0.19400
F970        F  0.76766562  0.82910861  0.35873870    -0.19400
F971        F  0.73521500  0.87244716  0.32554392    -0.19800
F972        F  0.75245917  0.88412049  0.38449276    -0.22400
C973        C  0.88169599  0.70650825  0.14765191    -0.05300
C974        C  0.86355251  0.69067990  0.17878627     0.00700
C975        C  0.87589596  0.65579039  0.19344169    -0.07900
C976        C  0.90784591  0.63872163  0.17742778    -0.05300
C977        C  0.92738638  0.65566024  0.14757884     0.00700
C978        C  0.91382497  0.68973383  0.13179097    -0.07800
C979        C  0.93188807  0.70990922  0.09866615     0.62600
H980        H  0.87139154  0.73290814  0.13636496     0.13300
H981        H  0.91867821  0.61267592  0.18896338     0.13300
C982        C  0.85530447  0.63690701  0.22587503     0.62800
F983        F  0.90623935  0.71157869  0.06963398    -0.22400
F984        F  0.96424537  0.69280133  0.08544614    -0.19700
F985        F  0.94106134  0.74604493  0.10898952    -0.19400
F986        F  0.81762343  0.63251874  0.21696302    -0.19400
F987        F  0.85808995  0.65862735  0.25765360    -0.19800
F988        F  0.87011636  0.60183415  0.23396620    -0.22400
C989        C  0.36482142  0.37611233  0.79672556    -0.05300
C990        C  0.32814453  0.37884413  0.78170683     0.00700
C991        C  0.30841121  0.41338796  0.78557936    -0.07900
C992        C  0.32273925  0.44017551  0.81022648    -0.05300
C993        C  0.35885132  0.43719698  0.82623582     0.00700
C994        C  0.38138565  0.40555370  0.81706500    -0.07800
C995        C  0.42270678  0.40218570  0.82762884     0.62600
H996        H  0.38082148  0.35055629  0.79260475     0.13300
H997        H  0.30555612  0.46442730  0.81671863     0.13300
C998        C  0.27323168  0.42341951  0.76330464     0.62800
F999        F  0.44166338  0.37846835  0.80337942    -0.22400
F1000       F  0.42576000  0.38761740  0.86344616    -0.19700
F1001       F  0.44042189  0.43666294  0.82566724    -0.19400
F1002       F  0.24264418  0.40356823  0.77657414    -0.19400
F1003       F  0.27900018  0.41561087  0.72580087    -0.19800
F1004       F  0.26443753  0.46118593  0.76584806    -0.22400
C1005       C  0.38940355  0.20557231  0.64021065    -0.05300
C1006       C  0.37474896  0.19276040  0.67452713     0.00700
C1007       C  0.39111699  0.16105336  0.69245154    -0.07900
C1008       C  0.42180837  0.14310715  0.67511992    -0.05300
C1009       C  0.43747032  0.15695245  0.64178041     0.00700
C1010       C  0.42150181  0.18878648  0.62401324    -0.07800
C1011       C  0.43927116  0.20559214  0.58899459     0.62600
H1012       H  0.37658515  0.22994743  0.62716770     0.13300
H1013       H  0.43520213  0.11918980  0.68846404     0.13300
C1014       C  0.37705988  0.14679288  0.73018947     0.62800
F1015       F  0.47517856  0.21823722  0.59701284    -0.22400
F1016       F  0.41854884  0.23559860  0.57528882    -0.19700
F1017       F  0.44150046  0.17877145  0.56132337    -0.19400
F1018       F  0.33860669  0.14050601  0.72888229    -0.19400
F1019       F  0.38465531  0.17305448  0.75739818    -0.19800
F1020       F  0.39447264  0.11348950  0.74051752    -0.22400
C1021       C  0.19468578  0.12463812  0.66328916    -0.05300
C1022       C  0.18313093  0.13761809  0.69882999     0.00700
C1023       C  0.15255657  0.11916173  0.71727815    -0.07900
C1024       C  0.13589638  0.08785118  0.69986474    -0.05300
C1025       C  0.14808146  0.07517849  0.66469596     0.00700
C1026       C  0.17767493  0.09394523  0.64587232    -0.07800
C1027       C  0.19170984  0.08113463  0.60769508     0.62600
H1028       H  0.21771981  0.13857134  0.64893973     0.13300
H1029       H  0.11336565  0.07260646  0.71374395     0.13300
C1030       C  0.13709356  0.13223546  0.75474800     0.62800
F1031       F  0.16343471  0.08569384  0.58150650    -0.22400
F1032       F  0.20211719  0.04376188  0.60934795    -0.19700
F1033       F  0.22270415  0.10147922  0.59553263    -0.19400
F1034       F  0.12687161  0.16963912  0.75231040    -0.19400
F1035       F  0.16412060  0.12748899  0.78220857    -0.20200
F1036       F  0.10544156  0.11218152  0.76564428    -0.22400
C1037       C  0.11579542  0.28437121  0.83536669    -0.05300
C1038       C  0.14243568  0.30859448  0.81872780     0.00700
C1039       C  0.13731209  0.34805343  0.82331017    -0.07900
C1040       C  0.10414226  0.36136773  0.84054096    -0.05300
C1041       C  0.07675400  0.33715842  0.85535446     0.00700
C1042       C  0.08394436  0.29794181  0.85496771    -0.07800
C1043       C  0.05943733  0.26952056  0.87539861     0.62600
H1044       H  0.11993619  0.25434289  0.83329819     0.13300
H1045       H  0.09872425  0.39124015  0.84143412     0.13300
C1046       C  0.16660899  0.37656918  0.81091403     0.62800
F1047       F  0.08195718  0.24276223  0.89260219    -0.22400
F1048       F  0.03622711  0.25188205  0.85003531    -0.19700
F1049       F  0.03764792  0.28584848  0.90307155    -0.19400
F1050       F  0.16754110  0.37899954  0.77223625    -0.19400
F1051       F  0.20155138  0.36598537  0.82455167    -0.19800
F1052       F  0.15883461  0.41205824  0.82446360    -0.22400
C1053       C  0.15855907  0.30972726  0.56772261    -0.05300
C1054       C  0.16153350  0.34829951  0.56052554     0.00700
C1055       C  0.18573495  0.37047010  0.58258325    -0.07900
C1056       C  0.20477184  0.35340964  0.61271644    -0.05300
C1057       C  0.20193074  0.31476343  0.61997238     0.00700
C1058       C  0.17884606  0.29224294  0.59677708    -0.07800
C1059       C  0.17536897  0.25006638  0.60247671     0.62600
H1060       H  0.14083318  0.29322708  0.54954404     0.13300
H1061       H  0.22263293  0.37008725  0.63059196     0.13300
C1062       C  0.19256436  0.41152535  0.57336349     0.62800
F1063       F  0.14857848  0.23460277  0.57913493    -0.22400
F1064       F  0.16488622  0.24204389  0.63904114    -0.19700
F1065       F  0.20958837  0.23303831  0.59464517    -0.19400
F1066       F  0.20482073  0.41513333  0.53666261    -0.19400
F1067       F  0.21976025  0.42697139  0.59624576    -0.19800
F1068       F  0.15956823  0.43171088  0.57798325    -0.22400
C1069       C  0.29864012  0.15720836  0.87414355    -0.05300
C1070       C  0.31455040  0.19092383  0.86085080     0.00700
C1071       C  0.34667808  0.20592685  0.87958615    -0.07900
C1072       C  0.36024117  0.18727723  0.91164530    -0.05300
C1073       C  0.34361119  0.15436837  0.92509978     0.00700
C1074       C  0.31299970  0.13836409  0.90579445    -0.07800
C1075       C  0.29612654  0.10127699  0.91838244     0.62600
H1076       H  0.27491439  0.14544852  0.85932369     0.13300
H1077       H  0.38393497  0.19845369  0.92699273     0.13300
C1078       C  0.36664683  0.24162665  0.86683798     0.62800
F1079       F  0.26807085  0.08935412  0.89441940    -0.22400
F1080       F  0.28059809  0.10480960  0.95375851    -0.19700
F1081       F  0.32402694  0.07409986  0.91925632    -0.19400
F1082       F  0.34098477  0.27078412  0.86397047    -0.19400
F1083       F  0.38405649  0.23587074  0.83258574    -0.19800
F1084       F  0.39433170  0.25248986  0.89173549    -0.22400
C1085       C  0.79266772  0.36153639  0.62634545    -0.05300
C1086       C  0.79062450  0.32242019  0.62921090     0.00700
C1087       C  0.80599497  0.29985722  0.60049008    -0.07900
C1088       C  0.82648911  0.31726943  0.57150602    -0.05300
C1089       C  0.83004458  0.35647556  0.56917420     0.00700
C1090       C  0.81123746  0.37912396  0.59595813    -0.07800
C1091       C  0.80924843  0.42141520  0.59162218     0.62600
H1092       H  0.78011403  0.37816973  0.64841644     0.13300
H1093       H  0.83934677  0.30033834  0.54982199     0.13300
C1094       C  0.79917232  0.25774823  0.59967089     0.62800
F1095       F  0.78544800  0.43731435  0.61797699    -0.22400
F1096       F  0.79559970  0.43059838  0.55647924    -0.19700
F1097       F  0.84464829  0.43681185  0.59597869    -0.19400
F1098       F  0.76101574  0.25065419  0.60411973    -0.19400
F1099       F  0.81880120  0.24005047  0.62813208    -0.19800
F1100       F  0.81056649  0.24224106  0.56601692    -0.22400
C1101       C  0.65204877  0.39490242  0.78002194    -0.05300
C1102       C  0.66764778  0.36715786  0.80349841     0.00700
C1103       C  0.66165472  0.36991294  0.84294135    -0.07900
C1104       C  0.64530253  0.40266497  0.85735228    -0.05300
C1105       C  0.63237565  0.43165686  0.83405694     0.00700
C1106       C  0.63305477  0.42638657  0.79461699    -0.07800
C1107       C  0.61408142  0.45291492  0.76705176     0.62600
H1108       H  0.65496052  0.39221044  0.74992469     0.13300
H1109       H  0.64431554  0.40658177  0.88739316     0.13300
C1110       C  0.67283890  0.33917961  0.87050431     0.62800
F1111       F  0.59597877  0.43255077  0.73963676    -0.22400
F1112       F  0.64097995  0.47542970  0.75008121    -0.19700
F1113       F  0.58715223  0.47523251  0.78411980    -0.19400
F1114       F  0.71142755  0.33988422  0.87601237    -0.19400
F1115       F  0.66208457  0.30450711  0.85714353    -0.19800
F1116       F  0.65545854  0.34382826  0.90500174    -0.22400
C1117       C  0.86195513  0.08556770  0.69752759    -0.05300
C1118       C  0.84892606  0.07621844  0.66172551     0.00700
C1119       C  0.82187723  0.09928103  0.64366162    -0.07900
C1120       C  0.80810981  0.13086804  0.66270892    -0.05300
C1121       C  0.82034263  0.13948435  0.69890356     0.00700
C1122       C  0.84795266  0.11706702  0.71656505    -0.07800
C1123       C  0.86144068  0.12595323  0.75571090     0.62600
H1124       H  0.88243064  0.06730177  0.71085177     0.13300
H1125       H  0.78699199  0.14874214  0.64983863     0.13300
C1126       C  0.80647274  0.08971035  0.60527542     0.62800
F1127       F  0.88913084  0.10120922  0.76759951    -0.22400
F1128       F  0.83139773  0.12378885  0.78050393    -0.19700
F1129       F  0.87622837  0.16178344  0.75638377    -0.19400
F1130       F  0.78852372  0.05536030  0.60687802    -0.19400
F1131       F  0.83554234  0.08809181  0.57939474    -0.19800
F1132       F  0.78072592  0.11621527  0.59279254    -0.22400
C1133       C  0.57913385  0.15425380  0.68741139    -0.05300
C1134       C  0.57623276  0.15626735  0.64831132     0.00700
C1135       C  0.60201679  0.17863688  0.62758051    -0.07900
C1136       C  0.63055313  0.19781603  0.64706735    -0.05300
C1137       C  0.63349313  0.19552287  0.68626377     0.00700
C1138       C  0.60698098  0.17389111  0.70692653    -0.07800
C1139       C  0.60684837  0.17274233  0.74950212     0.62600
H1140       H  0.55851086  0.13770111  0.70270779     0.13300
H1141       H  0.65106800  0.21450741  0.63180868     0.13300
C1142       C  0.59887289  0.18288294  0.58536199     0.62800
F1143       F  0.57406328  0.15687056  0.76364161    -0.22400
F1144       F  0.60931828  0.20873986  0.76343295    -0.19700
F1145       F  0.63702196  0.15168540  0.76224198    -0.19400
F1146       F  0.62485973  0.20826574  0.57116367    -0.19400
F1147       F  0.56318230  0.19549886  0.57597887    -0.19800
F1148       F  0.60536006  0.14871444  0.56849393    -0.22400
C1149       C  0.69189522  0.15042272  0.87208369    -0.05300
C1150       C  0.70938160  0.18558095  0.87593428     0.00700
C1151       C  0.71254667  0.20091363  0.91248432    -0.07900
C1152       C  0.69367324  0.18298184  0.94228252    -0.05300
C1153       C  0.67615699  0.14782465  0.93850013     0.00700
C1154       C  0.67765645  0.13012108  0.90295982    -0.07800
C1155       C  0.66617694  0.08975714  0.89605451     0.62600
H1156       H  0.69027130  0.13784309  0.84460692     0.13300
H1157       H  0.69236137  0.19690796  0.96906002     0.13300
C1158       C  0.73632971  0.23525650  0.92106846     0.62800
F1159       F  0.69094500  0.07332673  0.87090462    -0.22400
F1160       F  0.63035585  0.08898707  0.88088739    -0.19700
F1161       F  0.66708748  0.06820231  0.92835605    -0.19400
F1162       F  0.71953760  0.26711646  0.90649854    -0.19400
F1163       F  0.77213144  0.23092984  0.90600922    -0.19800
F1164       F  0.74050537  0.24044971  0.95923304    -0.22400
C1165       C  0.92412114  0.35573387  0.81250011    -0.05300
C1166       C  0.93564290  0.34328523  0.84792865     0.00700
C1167       C  0.91308335  0.31741418  0.86824594    -0.07900
C1168       C  0.88088900  0.30251706  0.85093295    -0.05300
C1169       C  0.87021300  0.31375816  0.81476409     0.00700
C1170       C  0.89101674  0.34214140  0.79587521    -0.07800
C1171       C  0.87730976  0.35942000  0.75937641     0.62600
H1172       H  0.94126379  0.37643006  0.79804431     0.13300
H1173       H  0.86384228  0.28178191  0.86543487     0.13300
C1174       C  0.92274806  0.30609197  0.90810809     0.62800
F1175       F  0.89813726  0.39077279  0.74939115    -0.22400
F1176       F  0.84002895  0.37043777  0.76322699    -0.19700
F1177       F  0.88027373  0.33370347  0.73076277    -0.19400
F1178       F  0.92253213  0.33745674  0.93061052    -0.19400
F1179       F  0.95809800  0.28970559  0.90907843    -0.19800
F1180       F  0.89700721  0.28076121  0.92284029    -0.22400
C1181       C  0.15796270  0.68516648  0.58323356    -0.05300
C1182       C  0.16516050  0.64728426  0.57608226     0.00700
C1183       C  0.19010961  0.62703764  0.59966630    -0.07900
C1184       C  0.20632786  0.64544732  0.63060917    -0.05300
C1185       C  0.19886773  0.68346248  0.63788159     0.00700
C1186       C  0.17488777  0.70393967  0.61323865    -0.07800
C1187       C  0.16901000  0.74606330  0.61688615     0.62600
H1188       H  0.13960284  0.70029963  0.56419230     0.13300
H1189       H  0.22493381  0.63028556  0.64936840     0.13300
C1190       C  0.20021208  0.58658327  0.59138424     0.62800
F1191       F  0.15113691  0.76120086  0.58585962    -0.22400
F1192       F  0.20357201  0.76368470  0.62024436    -0.19700
F1193       F  0.14691443  0.75383672  0.64789876    -0.19400
F1194       F  0.22672278  0.57259572  0.61621601    -0.19400
F1195       F  0.21504237  0.58398958  0.55557947    -0.19800
F1196       F  0.16827445  0.56452354  0.59399508    -0.22400
C1197       C  0.37768898  0.79074148  0.64685996    -0.05300
C1198       C  0.37182704  0.79972231  0.68465934     0.00700
C1199       C  0.39769284  0.82372949  0.70304251    -0.07900
C1200       C  0.42731810  0.83955231  0.68209955    -0.05300
C1201       C  0.43231712  0.83163123  0.64405177     0.00700
C1202       C  0.40797802  0.80608502  0.62622617    -0.07800
C1203       C  0.41467175  0.79454694  0.58597306     0.62600
H1204       H  0.35798063  0.77201841  0.63346338     0.13300
H1205       H  0.44718652  0.85823972  0.69536825     0.13300
C1206       C  0.39493920  0.83209457  0.74470792     0.62800
F1207       F  0.41315862  0.82571099  0.56278267    -0.22400
F1208       F  0.38789736  0.76916993  0.57398344    -0.19700
F1209       F  0.44983606  0.77793322  0.58275670    -0.19400
F1210       F  0.38903393  0.79930553  0.76480752    -0.19400
F1211       F  0.36551250  0.85670432  0.75133040    -0.19800
F1212       F  0.42773231  0.84825773  0.75798043    -0.22400
C1213       C  0.11456741  0.71721190  0.85459445    -0.05300
C1214       C  0.13107273  0.70318011  0.82177108     0.00700
C1215       C  0.11694304  0.66996257  0.80542867    -0.07900
C1216       C  0.08605530  0.65204707  0.82240439    -0.05300
C1217       C  0.06886317  0.66666309  0.85445656     0.00700
C1218       C  0.08288874  0.69971681  0.87093894    -0.07800
C1219       C  0.06389971  0.71646721  0.90514631     0.62600
H1220       H  0.12610184  0.74243687  0.86670756     0.13300
H1221       H  0.07425950  0.62698752  0.81016554     0.13300
C1222       C  0.13448581  0.65339360  0.77028167     0.62800
F1223       F  0.08252800  0.74808080  0.91749599    -0.22400
F1224       F  0.06339684  0.69038166  0.93400166    -0.19700
F1225       F  0.02721883  0.72657695  0.89658120    -0.19400
F1226       F  0.17286746  0.64840198  0.77525974    -0.19400
F1227       F  0.12848556  0.67723665  0.74017303    -0.19800
F1228       F  0.11902501  0.61891938  0.76168883    -0.22400
C1229       C  0.35281051  0.62334150  0.79308823    -0.05300
C1230       C  0.31930313  0.63684369  0.80951926     0.00700
C1231       C  0.30477745  0.61842408  0.84216689    -0.07900
C1232       C  0.32483478  0.58787908  0.85725308    -0.05300
C1233       C  0.35790396  0.57441864  0.84063085     0.00700
C1234       C  0.37239164  0.59222153  0.80802000    -0.07800
C1235       C  0.40887213  0.57905441  0.78973536     0.62600
H1236       H  0.36372826  0.63753912  0.76843176     0.13300
H1237       H  0.31413289  0.57322009  0.88176733     0.13300
C1238       C  0.26768755  0.62958332  0.86076600     0.62800
F1239       F  0.41883949  0.60140171  0.75941347    -0.22400
F1240       F  0.40523681  0.54278397  0.77698537    -0.19700
F1241       F  0.43777485  0.58029194  0.81557305    -0.19400
F1242       F  0.23954877  0.63301586  0.83420669    -0.19400
F1243       F  0.27208755  0.66319734  0.87928099    -0.19800
F1244       F  0.25577950  0.60312241  0.88680290    -0.22400
C1245       C  0.35350512  0.82319479  0.91804037    -0.05300
C1246       C  0.34416025  0.85984065  0.92842518     0.00700
C1247       C  0.31896534  0.88124567  0.90624270    -0.07900
C1248       C  0.30104275  0.86381674  0.87593730    -0.05300
C1249       C  0.30813116  0.82614129  0.86738389     0.00700
C1250       C  0.33645302  0.80608687  0.88717639    -0.07800
C1251       C  0.34914159  0.76708752  0.87548438     0.62600
H1252       H  0.37351918  0.80768024  0.93502923     0.13300
H1253       H  0.28057944  0.87913136  0.85933050     0.13300
C1254       C  0.31049081  0.92191098  0.91523133     0.62800
F1255       F  0.38231559  0.75658062  0.89304002    -0.22400
F1256       F  0.35560984  0.76625749  0.83722521    -0.19700
F1257       F  0.32170558  0.74111604  0.88479578    -0.19400
F1258       F  0.34350593  0.94247463  0.91427702    -0.19400
F1259       F  0.29447519  0.92433850  0.95052288    -0.19800
F1260       F  0.28580219  0.93783084  0.88969976    -0.22400
C1261       C  0.14507206  0.88162523  0.70386427    -0.05300
C1262       C  0.18231269  0.87183008  0.69446366     0.00700
C1263       C  0.20204217  0.89304703  0.66682158    -0.07900
C1264       C  0.18472140  0.92521526  0.65175729    -0.05300
C1265       C  0.14832848  0.93598097  0.66259579     0.00700
C1266       C  0.12758565  0.91355269  0.68818321    -0.07800
C1267       C  0.08744495  0.92378469  0.69906786     0.62600
H1268       H  0.13013573  0.86457936  0.72429345     0.13300
H1269       H  0.19966109  0.94263169  0.63162363     0.13300
C1270       C  0.24067457  0.88128109  0.65228733     0.62800
F1271       F  0.07239704  0.89864288  0.72477018    -0.22400
F1272       F  0.06483199  0.92370441  0.66762045    -0.19700
F1273       F  0.08670866  0.95909673  0.71479449    -0.19400
F1274       F  0.23981604  0.84406301  0.64168375    -0.19400
F1275       F  0.26756482  0.88596030  0.67974975    -0.19800
F1276       F  0.25161328  0.90235221  0.62137455    -0.22400
C1277       C  0.82883164  0.70815229  0.61056185    -0.05300
C1278       C  0.80238576  0.68614209  0.63024836     0.00700
C1279       C  0.79530791  0.64895388  0.61841278    -0.07900
C1280       C  0.81491317  0.63534633  0.58683377    -0.05300
C1281       C  0.84123932  0.65756708  0.56741411     0.00700
C1282       C  0.84864848  0.69442758  0.57947908    -0.07800
C1283       C  0.87785660  0.71889738  0.55999401     0.62600
H1284       H  0.83406568  0.73646348  0.61994908     0.13300
H1285       H  0.80962158  0.60729537  0.57673714     0.13300
C1286       C  0.76818432  0.62343868  0.63944183     0.62800
F1287       F  0.88167493  0.75335813  0.57715311    -0.22400
F1288       F  0.86740315  0.72536350  0.52332282    -0.19700
F1289       F  0.91256571  0.70109629  0.56065406    -0.19400
F1290       F  0.73182841  0.63726727  0.63646964    -0.19400
F1291       F  0.77822586  0.62138935  0.67680780    -0.19800
F1292       F  0.76849692  0.58740327  0.62532054    -0.22400
C1293       C  0.70239231  0.61094756  0.82760448    -0.05300
C1294       C  0.68194886  0.63076055  0.80013297     0.00700
C1295       C  0.64452812  0.61946537  0.79179431    -0.07900
C1296       C  0.62878929  0.58908544  0.81202377    -0.05300
C1297       C  0.64929222  0.56982299  0.83971712     0.00700
C1298       C  0.68679208  0.58048958  0.84739786    -0.07800
C1299       C  0.70997059  0.56000561  0.87682587     0.62600
H1300       H  0.73096699  0.61968587  0.83360489     0.13300
H1301       H  0.60047963  0.57958312  0.80594402     0.13300
C1302       C  0.62111299  0.63948443  0.76222265     0.62800
F1303       F  0.69278767  0.56385049  0.91143815    -0.22400
F1304       F  0.74626534  0.57404831  0.87913375    -0.19700
F1305       F  0.71263453  0.52234795  0.86828546    -0.19400
F1306       F  0.63736875  0.63450657  0.72731194    -0.19400
F1307       F  0.61911719  0.67737160  0.77002595    -0.19800
F1308       F  0.58462476  0.62579603  0.76085984    -0.22400
C1309       C  0.61804594  0.83398841  0.68726787    -0.05300
C1310       C  0.63195108  0.79878228  0.67571096     0.00700
C1311       C  0.61389395  0.78043906  0.64531842    -0.07900
C1312       C  0.58387283  0.79894309  0.62701082    -0.05300
C1313       C  0.57033132  0.83378523  0.63909176     0.00700
C1314       C  0.58676097  0.85112627  0.67037973    -0.07800
C1315       C  0.56955791  0.88620963  0.68749414     0.62600
H1316       H  0.63088789  0.84759782  0.71097605     0.13300
H1317       H  0.56946205  0.78565197  0.60397288     0.13300
C1318       C  0.62502436  0.74135434  0.63259633     0.62800
F1319       F  0.58961067  0.89833729  0.71826759    -0.22400
F1320       F  0.53302061  0.87870758  0.69910962    -0.19700
F1321       F  0.56904493  0.91503949  0.66144456    -0.19400
F1322       F  0.61912614  0.71594160  0.66149817    -0.19400
F1323       F  0.66257555  0.74083845  0.62186650    -0.19800
F1324       F  0.60384567  0.72964044  0.60238440    -0.22400
C1325       C  0.69664526  0.85589406  0.87286211    -0.05300
C1326       C  0.69455819  0.81674457  0.86894077     0.00700
C1327       C  0.67285747  0.79540543  0.89494776    -0.07900
C1328       C  0.65519441  0.81407001  0.92473481    -0.05300
C1329       C  0.65814463  0.85292921  0.92911052     0.00700
C1330       C  0.67871756  0.87451210  0.90267382    -0.07800
C1331       C  0.68197598  0.91681299  0.90608160     0.62600
H1332       H  0.71264116  0.87184068  0.85233999     0.13300
H1333       H  0.63950485  0.79828297  0.94563609     0.13300
C1334       C  0.66778909  0.75325405  0.89142191     0.62800
F1335       F  0.70648643  0.93175998  0.87963757    -0.22400
F1336       F  0.69523375  0.92613296  0.94117037    -0.19700
F1337       F  0.64697870  0.93312778  0.90077126    -0.19400
F1338       F  0.70146158  0.73525620  0.89932083    -0.19400
F1339       F  0.65640995  0.74440920  0.85554234    -0.19800
F1340       F  0.64068972  0.73966310  0.91604337    -0.22400
C1341       C  0.79244767  0.89409647  0.67819341    -0.05300
C1342       C  0.81676953  0.87194911  0.70010419     0.00700
C1343       C  0.85534828  0.88194171  0.70312782    -0.07900
C1344       C  0.86771488  0.91499671  0.68518769    -0.05300
C1345       C  0.84310834  0.93724101  0.66377316     0.00700
C1346       C  0.80513306  0.92621314  0.65917987    -0.07800
C1347       C  0.77854603  0.94725472  0.63313106     0.62600
H1348       H  0.76331203  0.88548146  0.67537374     0.13300
H1349       H  0.89681426  0.92384240  0.68765121     0.13300
C1350       C  0.88318244  0.85842318  0.72548700     0.62800
F1351       F  0.74442882  0.92885662  0.62925948    -0.22400
F1352       F  0.79483591  0.95048371  0.59797101    -0.19700
F1353       F  0.77110362  0.98258641  0.64691602    -0.19400
F1354       F  0.88864277  0.82426379  0.70820273    -0.19400
F1355       F  0.86951237  0.85258523  0.76141392    -0.19800
F1356       F  0.91799703  0.87569914  0.72817101    -0.22400
C1357       C  0.88606307  0.66922675  0.79880773    -0.05300
C1358       C  0.86813921  0.69760953  0.81934427     0.00700
C1359       C  0.88107889  0.70660688  0.85561371    -0.07900
C1360       C  0.91242156  0.68704520  0.86990263    -0.05300
C1361       C  0.93031576  0.65882164  0.84921951     0.00700
C1362       C  0.91682950  0.64919464  0.81340933    -0.07800
C1363       C  0.93459551  0.61756996  0.79114714     0.62600
H1364       H  0.87538053  0.66257139  0.77126510     0.13300
H1365       H  0.92372222  0.69403305  0.89710819     0.13300
C1366       C  0.86270118  0.73736313  0.87851602     0.62800
F1367       F  0.91644239  0.61212148  0.75736543    -0.22400
F1368       F  0.93240428  0.58460617  0.81167665    -0.19700
F1369       F  0.97204843  0.62546277  0.78357182    -0.19400
F1370       F  0.82657351  0.72671783  0.88866539    -0.19400
F1371       F  0.86106250  0.77017550  0.85767201    -0.19800
F1372       F  0.88263911  0.74459350  0.91092048    -0.22400
loop_ 
_geom_bond_atom_site_label_1 
_geom_bond_atom_site_label_2 
_geom_bond_distance 
_geom_bond_site_symmetry_2 
_ccdc_geom_bond_type 
N1            C6   1.356       .  A
N1            C5   1.356       .  A
N1           H33   1.034       .  S
N2            C9   1.351   1_545  A
N2           C10   1.352       .  A
N3            C8   1.354       .  A
N3            C7   1.356       .  A
N3           H34   1.034       .  S
N4           C11   1.354       .  A
N4           C12   1.354   1_565  A
C5           C13   1.388       .  A
C5           C21   1.421       .  A
C6           C22   1.421       .  A
C6           C14   1.388       .  A
C7           C15   1.387       .  A
C7           C24   1.418       .  A
C8           C23   1.421       .  A
C8           C16   1.390       .  A
C9           C21   1.417       .  A
C9           C17   1.387       .  A
C10          C24   1.416       .  A
C10          C18   1.386       .  A
C11          C19   1.387       .  A
C11          C22   1.422       .  A
C12          C20   1.386       .  A
C12          C23   1.420       .  A
C13          C14   1.370       .  A
C13          H25   1.082       .  S
C14          H26   1.082       .  S
C15          C16   1.368       .  A
C15          H27   1.083       .  S
C16          H28   1.082       .  S
C17          C18   1.374   1_565  A
C17          H29   1.083       .  S
C18          H30   1.082       .  S
C19          C20   1.377   1_565  A
C19          H31   1.082       .  S
C20          H32   1.082       .  S
C21         C490   1.484       .  S
C22         C580   1.492       .  S
C23         C544   1.487       .  S
C24         C418   1.486       .  S
N35          C40   1.358       .  A
N35          C39   1.355       .  A
N35          H67   1.033       .  S
N36          C43   1.355   1_455  A
N36          C44   1.356       .  A
N37          C42   1.357       .  A
N37          C41   1.358       .  A
N37          H68   1.033       .  S
N38          C45   1.355       .  A
N38          C46   1.353   1_655  A
C39          C47   1.389       .  A
C39          C55   1.423       .  A
C40          C56   1.423       .  A
C40          C48   1.388       .  A
C41          C49   1.387       .  A
C41          C58   1.424       .  A
C42          C57   1.425       .  A
C42          C50   1.389       .  A
C43          C55   1.423       .  A
C43          C51   1.387       .  A
C44          C58   1.424       .  A
C44          C52   1.386       .  A
C45          C53   1.386       .  A
C45          C56   1.422       .  A
C46          C54   1.387       .  A
C46          C57   1.422       .  A
C47          C48   1.372       .  A
C47          H59   1.082       .  S
C48          H60   1.082       .  S
C49          C50   1.372       .  A
C49          H61   1.082       .  S
C50          H62   1.081       .  S
C51          C52   1.378   1_655  A
C51          H63   1.083       .  S
C52          H64   1.082       .  S
C53          C54   1.377   1_655  A
C53          H65   1.082       .  S
C54          H66   1.082       .  S
C55         C598   1.491       .  S
C56         C454   1.495       .  S
C57         C519   1.491       .  S
C58         C499   1.499       .  S
N69          C74   1.357       .  A
N69          C73   1.357       .  A
N69         H101   1.036       .  S
N70          C77   1.354   1_554  A
N70          C78   1.354       .  A
N71          C76   1.355       .  A
N71          C75   1.356       .  A
N71         H102   1.031       .  S
N72          C79   1.355   1_554  A
N72          C80   1.355       .  A
C73          C81   1.387       .  A
C73          C89   1.420       .  A
C74          C90   1.423       .  A
C74          C82   1.390       .  A
C75          C83   1.389       .  A
C75          C92   1.422       .  A
C76          C91   1.422       .  A
C76          C84   1.389       .  A
C77          C89   1.421       .  A
C77          C85   1.386       .  A
C78          C92   1.423       .  A
C78          C86   1.387       .  A
C79          C87   1.386       .  A
C79          C90   1.423       .  A
C80          C88   1.387       .  A
C80          C91   1.424       .  A
C81          C82   1.366       .  A
C81          H93   1.082       .  S
C82          H94   1.082       .  S
C83          C84   1.369       .  A
C83          H95   1.082       .  S
C84          H96   1.082       .  S
C85          C86   1.380   1_556  A
C85          H97   1.082       .  S
C86          H98   1.082       .  S
C87          C88   1.380   1_556  A
C87          H99   1.082       .  S
C88         H100   1.082       .  S
C89         C589   1.493       .  S
C90         C553   1.496       .  S
C91         C465   1.490       .  S
C92         C445   1.493       .  S
N103        C108   1.353   1_454  A
N103        C107   1.356   1_455  A
N103        H135   1.033   1_554  S
N104        C111   1.352   1_655  A
N104        C112   1.350   1_655  A
N105        C110   1.353   1_455  A
N105        C109   1.351   1_456  A
N105        H136   1.031       .  S
N106        C113   1.351       .  A
N106        C114   1.355       .  A
C107        C115   1.387       .  A
C107        C123   1.419   1_655  A
C108        C124   1.420   1_655  A
C108        C116   1.389       .  A
C109        C117   1.389       .  A
C109        C126   1.416       .  A
C110        C125   1.417   1_655  A
C110        C118   1.388       .  A
C111        C123   1.413       .  A
C111        C119   1.386       .  A
C112        C126   1.415   1_455  A
C112        C120   1.388       .  A
C113        C121   1.388       .  A
C113        C124   1.418       .  A
C114        C122   1.385       .  A
C114        C125   1.419       .  A
C115        C116   1.373   1_554  A
C115        H127   1.081       .  S
C116        H128   1.082       .  S
C117        C118   1.370   1_554  A
C117        H129   1.082       .  S
C118        H130   1.082       .  S
C119        C120   1.373       .  A
C119        H131   1.082       .  S
C120        H132   1.082       .  S
C121        C122   1.376       .  A
C121        H133   1.083       .  S
C122        H134   1.082       .  S
C123        C472   1.485       .  S
C124        C571   1.481       .  S
C125        C526   1.488       .  S
C126        C400   1.474       .  S
N137        C142   1.353   1_545  A
N137        C141   1.353       .  A
N137        H169   1.037       .  S
N138        C145   1.352       .  A
N138        C146   1.351       .  A
N139        C144   1.355   1_545  A
N139        C143   1.354   1_554  A
N139        H170   1.040       .  S
N140        C147   1.350       .  A
N140        C148   1.350       .  A
C141        C149   1.390       .  A
C141        C157   1.422       .  A
C142        C158   1.419       .  A
C142        C150   1.389       .  A
C143        C151   1.390       .  A
C143        C160   1.419       .  A
C144        C159   1.418       .  A
C144        C152   1.388   1_554  A
C145        C157   1.418       .  A
C145        C153   1.386   1_556  A
C146        C160   1.417       .  A
C146        C154   1.386   1_556  A
C147        C155   1.387       .  A
C147        C158   1.415   1_554  A
C148        C156   1.387       .  A
C148        C159   1.413       .  A
C149        C150   1.369   1_545  A
C149        H161   1.082       .  S
C150        H162   1.083       .  S
C151        C152   1.369   1_545  A
C151        H163   1.082       .  S
C152        H164   1.082       .  S
C153        C154   1.377       .  A
C153        H165   1.082       .  S
C154        H166   1.082       .  S
C155        C156   1.374       .  A
C155        H167   1.082       .  S
C156        H168   1.083       .  S
C157        C436   1.486   1_556  S
C158        C508   1.480       .  S
C159        C483   1.481       .  S
C160        C409   1.482       .  S
O171        C187   1.273       .  A
O171       Zn177   2.017       .  S
C172       C1326   1.481       .  S
C172        O188   1.273       .  A
C172        O185   1.273       .  A
O173        C186   1.277       .  A
O173       Cd180   2.093       .  S
O174        C192   1.273       .  A
O174       Cd183   2.045       .  S
O175        C189   1.271       .  A
O175       Cd179   2.060       .  S
O176        C187   1.272       .  A
O176       Cd179   2.053       .  S
Zn177       O188   2.016       .  S
Zn177       O190   1.999       .  S
Zn177       O182   1.934       .  S
O178        C189   1.273       .  A
O178       Cd183   2.053       .  S
Cd179       O181   2.035       .  S
Cd179       O182   1.986       .  S
Cd180       O184   2.092       .  S
Cd180       O193   2.090       .  S
Cd180       O182   2.016       .  S
O181        C191   1.271       .  A
O182       Cd183   1.985       .  S
Cd183       O185   2.058       .  S
O184        C191   1.277       .  A
C186       C1294   1.488       .  S
C186        O190   1.273       .  A
C187       C1358   1.471       .  S
C189       C1342   1.477       .  S
C191       C1278   1.483       .  S
C192       C1310   1.497       .  S
C192        O193   1.275       .  A
O194        C210   1.273       .  A
O194       Zn200   2.007       .  S
C195       C1262   1.480       .  S
C195        O211   1.276       .  A
C195        O208   1.271       .  A
O196        C209   1.279       .  A
O196       Cd203   2.111       .  S
O197        C215   1.269       .  A
O197       Cd206   2.034       .  S
O198        C212   1.272       .  A
O198       Cd202   2.055       .  S
O199        C210   1.273       .  A
O199       Cd202   2.067       .  S
Zn200       O211   2.038       .  S
Zn200       O213   1.989       .  S
Zn200       O205   1.936       .  S
O201        C212   1.272       .  A
O201       Cd206   2.062       .  S
Cd202       O204   2.040       .  S
Cd202       O205   1.987       .  S
Cd203       O207   2.106       .  S
Cd203       O216   2.105       .  S
Cd203       O205   2.027       .  S
O204        C214   1.268       .  A
O205       Cd206   1.990       .  S
Cd206       O208   2.054       .  S
O207        C214   1.280       .  A
C209       C1185   1.488       .  S
C209        O213   1.269       .  A
C210       C1214   1.470       .  S
C212       C1249   1.473       .  S
C214       C1230   1.493       .  S
C215       C1198   1.479       .  S
C215        O216   1.280       .  A
O217        C233   1.273       .  A
O217       Zn223   2.017       .  S
C218       C1150   1.496       .  S
C218        O234   1.276       .  A
C218        O231   1.271       .  A
O219        C232   1.278       .  A
O219       Cd226   2.099       .  S
O220        C238   1.270       .  A
O220       Cd229   2.041       .  S
O221        C235   1.273       .  A
O221       Cd225   2.066       .  S
O222        C233   1.271       .  A
O222       Cd225   2.060       .  S
Zn223       O234   2.023       .  S
Zn223       O236   1.995       .  S
Zn223       O228   1.942       .  S
O224        C235   1.274       .  A
O224       Cd229   2.075       .  S
Cd225       O227   2.027       .  S
Cd225       O228   1.988       .  S
Cd226       O230   2.103       .  S
Cd226       O239   2.115       .  S
Cd226       O228   2.025       .  S
O227        C237   1.269       .  A
O228       Cd229   1.984       .  S
Cd229       O231   2.057       .  S
O230        C237   1.279       .  A
C232       C1137   1.480       .  S
C232        O236   1.270       .  A
C233       C1121   1.468       .  S
C235       C1169   1.478       .  S
C237       C1086   1.470       .  S
C238       C1102   1.494       .  S
C238        O239   1.281       .  A
O240        C256   1.273       .  A
O240       Zn246   2.015       .  S
C241       C1006   1.476       .  S
C241        O257   1.274       .  A
C241        O254   1.272       .  A
O242        C255   1.278       .  A
O242       Cd249   2.103       .  S
O243        C261   1.268       .  A
O243       Cd252   2.036       .  S
O244        C258   1.272       .  A
O244       Cd248   2.066       .  S
O245        C256   1.274       .  A
O245       Cd248   2.062       .  S
Zn246       O257   2.035       .  S
Zn246       O259   1.984       .  S
Zn246       O251   1.938       .  S
O247        C258   1.276       .  A
O247       Cd252   2.078       .  S
Cd248       O250   2.061       .  S
Cd248       O251   1.984       .  S
Cd249       O253   2.117       .  S
Cd249       O262   2.102       .  S
Cd249       O251   2.024       .  S
O250        C260   1.271       .  A
O251       Cd252   1.993       .  S
Cd252       O254   2.063       .  S
O253        C260   1.281       .  A
C255       C1022   1.500       .  S
C255        O259   1.272       .  A
C256       C1057   1.480       .  S
C258        C990   1.499       .  S
C260       C1038   1.505       .  S
C261       C1070   1.492       .  S
C261        O262   1.281       .  A
O263        C279   1.272       .  A
O263       Zn269   2.009       .  S
C264        C974   1.468       .  S
C264        O280   1.273       .  A
C264        O277   1.272       .  A
O265        C278   1.279       .  A
O265       Cd272   2.111       .  S
O266        C284   1.270       .  A
O266       Cd275   2.028       .  S
O267        C281   1.272       .  A
O267       Cd271   2.062       .  S
O268        C279   1.274       .  A
O268       Cd271   2.067       .  S
Zn269       O280   2.021       .  S
Zn269       O282   1.984       .  S
Zn269       O274   1.932       .  S
O270        C281   1.274       .  A
O270       Cd275   2.077       .  S
Cd271       O273   2.033       .  S
Cd271       O274   1.986       .  S
Cd272       O276   2.105       .  S
Cd272       O285   2.118       .  S
Cd272       O274   2.028       .  S
O273        C283   1.271       .  A
O274       Cd275   1.988       .  S
Cd275       O277   2.055       .  S
O276        C283   1.279       .  A
C278        C910   1.492       .  S
C278        O282   1.271       .  A
C279        C929   1.480       .  S
C281        C958   1.477       .  S
C283        C942   1.492       .  S
C284        C894   1.498       .  S
C284        O285   1.281       .  A
O286        C302   1.275       .  A
O286       Zn292   2.040       .  S
C287        C881   1.482       .  S
C287        O303   1.274       .  A
C287        O300   1.273       .  A
O288        C301   1.279       .  A
O288       Cd295   2.095       .  S
O289        C307   1.270       .  A
O289       Cd298   2.048       .  S
O290        C304   1.272       .  A
O290       Cd294   2.057       .  S
O291        C302   1.270       .  A
O291       Cd294   2.052       .  S
Zn292       O303   2.021       .  S
Zn292       O305   1.978       .  S
Zn292       O297   1.941       .  S
O293        C304   1.274       .  A
O293       Cd298   2.056       .  S
Cd294       O296   2.040       .  S
Cd294       O297   1.987       .  S
Cd295       O299   2.114       .  S
Cd295       O308   2.125       .  S
Cd295       O297   2.028       .  S
O296        C306   1.269       .  A
O297       Cd298   1.989       .  S
Cd298       O300   2.064       .  S
O299        C306   1.281       .  A
C301        C814   1.474       .  S
C301        O305   1.269       .  A
C302        C833   1.484       .  S
C304        C846   1.471       .  S
C306        C862   1.484       .  S
C307        C798   1.495       .  S
C307        O308   1.282       .  A
O309        C325   1.275       .  A
O309       Zn315   2.035       .  S
C310        C750   1.486       .  S
C310        O326   1.274       .  A
C310        O323   1.272       .  A
O311        C324   1.282       .  A
O311       Cd318   2.117       .  S
O312        C330   1.266       .  A
O312       Cd321   2.028       .  S
O313        C327   1.273       .  A
O313       Cd317   2.064       .  S
O314        C325   1.270       .  A
O314       Cd317   2.048       .  S
Zn315       O326   2.021       .  S
Zn315       O328   1.969       .  S
Zn315       O320   1.934       .  S
O316        C327   1.271       .  A
O316       Cd321   2.049       .  S
Cd317       O319   2.032       .  S
Cd317       O320   1.983       .  S
Cd318       O322   2.131       .  S
Cd318       O331   2.120       .  S
Cd318       O320   2.034       .  S
O319        C329   1.266       .  A
O320       Cd321   1.982       .  S
Cd321       O323   2.069       .  S
O322        C329   1.283       .  A
C324        C766   1.490       .  S
C324        O328   1.267       .  A
C325        C737   1.477       .  S
C327        C782   1.471       .  S
C329        C721   1.502       .  S
C330        C702   1.496       .  S
C330        O331   1.283       .  A
N332        C337   1.354   1_655  A
N332        C336   1.354       .  A
N332        H364   1.034       .  S
N333        C340   1.350   1_565  A
N333        C341   1.352       .  A
N334        C339   1.351   1_655  A
N334        C338   1.353       .  A
N334        H365   1.027   1_565  S
N335        C342   1.352       .  A
N335        C343   1.352       .  A
C336        C344   1.387   1_545  A
C336        C352   1.417       .  A
C337        C353   1.419       .  A
C337        C345   1.389   1_545  A
C338        C346   1.387       .  A
C338        C355   1.418       .  A
C339        C354   1.420       .  A
C339        C347   1.390       .  A
C340        C352   1.414       .  A
C340        C348   1.387       .  A
C341        C355   1.416       .  A
C341        C349   1.386   1_565  A
C342        C350   1.387       .  A
C342        C353   1.418       .  A
C343        C351   1.387       .  A
C343        C354   1.419   1_545  A
C344        C345   1.372   1_655  A
C344        H356   1.082       .  S
C345        H357   1.082       .  S
C346        C347   1.370   1_655  A
C346        H358   1.082       .  S
C347        H359   1.082       .  S
C348        C349   1.372       .  A
C348        H360   1.083       .  S
C349        H361   1.082       .  S
C350        C351   1.377       .  A
C350        H362   1.083       .  S
C351        H363   1.082       .  S
C352        C562   1.480       .  S
C353        C535   1.483       .  S
C354        C368   1.480       .  S
C355        C427   1.482       .  S
C366        C367   1.398       .  A
C366        C371   1.400       .  A
C366        C689   1.471       .  S
C367        C368   1.401   1_545  A
C367        H372   1.084       .  S
C368        C369   1.405       .  A
C369        C370   1.403       .  A
C369        H373   1.083       .  S
C370        C371   1.401   1_565  A
C370        C878   1.478       .  S
C371        H374   1.084       .  S
O375        C391   1.273       .  A
O375       Zn381   2.005       .  S
C376        C673   1.467       .  S
C376        O392   1.271       .  A
C376        O389   1.271       .  A
O377        C390   1.277       .  A
O377       Cd384   2.096       .  S
O378        C396   1.268       .  A
O378       Cd387   2.035       .  S
O379        C393   1.272       .  A
O379       Cd383   2.056       .  S
O380        C391   1.273       .  A
O380       Cd383   2.069       .  S
Zn381       O392   2.012       .  S
Zn381       O394   2.001       .  S
Zn381       O386   1.934       .  S
O382        C393   1.271       .  A
O382       Cd387   2.058       .  S
Cd383       O385   2.052       .  S
Cd383       O386   1.990       .  S
Cd384       O388   2.100       .  S
Cd384       O397   2.107       .  S
Cd384       O386   2.015       .  S
O385        C395   1.273       .  A
O386       Cd387   1.981       .  S
Cd387       O389   2.033       .  S
O388        C395   1.279       .  A
C390        C622   1.495       .  S
C390        O394   1.274       .  A
C391        C657   1.469       .  S
C393        C686   1.471       .  S
C395        C638   1.486       .  S
C396        C606   1.483       .  S
C396        O397   1.279       .  A
C398        C399   1.395       .  A
C398        C403   1.395   1_455  A
C398        C670   1.463       .  S
C399        C400   1.399   1_455  A
C399        H404   1.084       .  S
C400        C401   1.404       .  A
C401        C402   1.400       .  A
C401        H405   1.084       .  S
C402        C403   1.395       .  A
C402        C785   1.468       .  S
C403        H406   1.085       .  S
C407        C408   1.404       .  A
C407        C412   1.400       .  A
C407       C1073   1.475       .  S
C408        C409   1.405       .  A
C408        H413   1.084       .  S
C409        C410   1.402   1_556  A
C410        C411   1.400       .  A
C410        H414   1.084       .  S
C411        C412   1.399   1_554  A
C411        C654   1.473       .  S
C412        H415   1.084       .  S
C416        C417   1.402       .  A
C416        C421   1.401       .  A
C416        C769   1.476       .  S
C417        C418   1.404       .  A
C417        H422   1.084       .  S
C418        C419   1.405       .  A
C419        C420   1.403       .  A
C419        H423   1.084       .  S
C420        C421   1.401       .  A
C420        C641   1.478       .  S
C421        H424   1.084       .  S
C425        C426   1.400       .  A
C425        C430   1.401       .  A
C425        C961   1.476       .  S
C426        C427   1.403       .  A
C426        H431   1.084       .  S
C427        C428   1.404   1_565  A
C428        C429   1.402       .  A
C428        H432   1.084       .  S
C429        C430   1.402   1_545  A
C429        C753   1.480       .  S
C430        H433   1.084       .  S
C434        C435   1.410       .  A
C434        C439   1.408   1_556  A
C434       C1153   1.500       .  S
C435        C436   1.405   1_556  A
C435        H440   1.081       .  S
C436        C437   1.404       .  A
C437        C438   1.400       .  A
C437        H441   1.084       .  S
C438        C439   1.398       .  A
C438        C734   1.477       .  S
C439        H442   1.083       .  S
C443        C444   1.408       .  A
C443        C448   1.399       .  A
C443        C718   1.483       .  S
C444        C445   1.410       .  A
C444        H449   1.083       .  S
C445        C446   1.407       .  A
C446        C447   1.404       .  A
C446        H450   1.084       .  S
C447        C448   1.398       .  A
C447        C913   1.478       .  S
C448        H451   1.085       .  S
C452        C453   1.403       .  A
C452        C457   1.393       .  A
C452        C705   1.475       .  S
C453        C454   1.406       .  A
C453        H458   1.084       .  S
C454        C455   1.412       .  A
C455        C456   1.411       .  A
C455        H459   1.082       .  S
C456        C457   1.398       .  A
C456       C1089   1.486       .  S
C457        H460   1.085       .  S
C461        C462   1.400       .  A
C461        C466   1.404       .  A
C461        C625   1.481       .  S
C462        C463   1.403       .  A
C462        H467   1.084       .  S
C463        C464   1.406       .  A
C463        C865   1.485       .  S
C464        C465   1.408       .  A
C464        H468   1.083       .  S
C465        C466   1.406       .  A
C466        H469   1.084       .  S
C470        C471   1.404       .  A
C470        C475   1.397   1_455  A
C470        C849   1.474       .  S
C471        C472   1.406       .  A
C471        H476   1.084       .  S
C472        C473   1.405   1_455  A
C473        C474   1.401       .  A
C473        H477   1.084       .  S
C474        C475   1.397       .  A
C474        C977   1.471       .  S
C475        H478   1.085       .  S
C479        C480   1.401   1_554  A
C479        C484   1.403       .  A
C479        C830   1.479       .  S
C480        C481   1.401       .  A
C480        H485   1.084       .  S
C481        C482   1.399       .  A
C481       C1246   1.475       .  S
C482        C483   1.403   1_556  A
C482        H486   1.084       .  S
C483        C484   1.404       .  A
C484        H487   1.083       .  S
C488        C489   1.404       .  A
C488        C493   1.398       .  A
C488        C817   1.478       .  S
C489        C490   1.406       .  A
C489        H494   1.083       .  S
C490        C491   1.404       .  A
C491        C492   1.400       .  A
C491        H495   1.084       .  S
C492        C493   1.396       .  A
C492        C945   1.471       .  S
C493        H496   1.085       .  S
C497        C498   1.408       .  A
C497        C502   1.402       .  A
C497       C1182   1.486       .  S
C498        C499   1.410       .  A
C498        H503   1.083       .  S
C499        C500   1.411       .  A
C500        C501   1.408       .  A
C500        H504   1.083       .  S
C501        C502   1.400       .  A
C501        C801   1.487       .  S
C502        H505   1.085       .  S
C506        C507   1.401       .  A
C506        C511   1.399       .  A
C506       C1329   1.475       .  S
C507        C508   1.403       .  A
C507        H512   1.083       .  S
C508        C509   1.404   1_556  A
C509        C510   1.401       .  A
C509        H513   1.084       .  S
C510        C511   1.397   1_554  A
C510        C926   1.473       .  S
C511        H514   1.085       .  S
C515        C516   1.396       .  A
C515        C520   1.407       .  A
C515        C609   1.477       .  S
C516        C517   1.396       .  A
C516        H521   1.085       .  S
C517        C518   1.404       .  A
C517       C1054   1.478       .  S
C518        C519   1.407       .  A
C518        H522   1.083       .  S
C519        C520   1.410       .  A
C520        H523   1.083       .  S
C524        C525   1.400       .  A
C524        C529   1.404   1_655  A
C524       C1166   1.478       .  S
C525        C526   1.401   1_655  A
C525        H530   1.084       .  S
C526        C527   1.407       .  A
C527        C528   1.412       .  A
C527        H531   1.084       .  S
C528        C529   1.407       .  A
C528       C1041   1.497       .  S
C529        H532   1.083       .  S
C533        C534   1.405       .  A
C533        C538   1.402       .  A
C533       C1025   1.480       .  S
C534        C535   1.405       .  A
C534        H539   1.084       .  S
C535        C536   1.402   1_545  A
C536        C537   1.400       .  A
C536        H540   1.084       .  S
C537        C538   1.401   1_565  A
C537       C1265   1.476       .  S
C538        H541   1.084       .  S
C542        C543   1.407       .  A
C542        C547   1.399       .  A
C542       C1134   1.481       .  S
C543        C544   1.409       .  A
C543        H548   1.083       .  S
C544        C545   1.406       .  A
C545        C546   1.399       .  A
C545        H549   1.084       .  S
C546        C547   1.394       .  A
C546       C1009   1.473       .  S
C547        H550   1.085       .  S
C551        C552   1.414       .  A
C551        C556   1.403       .  A
C551        C993   1.500       .  S
C552        C553   1.414       .  A
C552        H557   1.080       .  S
C553        C554   1.409       .  A
C554        C555   1.402       .  A
C554        H558   1.084       .  S
C555        C556   1.392       .  A
C555       C1233   1.479       .  S
C556        H559   1.084       .  S
C560        C561   1.401       .  A
C560        C565   1.400   1_565  A
C560       C1345   1.475       .  S
C561        C562   1.402   1_565  A
C561        H566   1.084       .  S
C562        C563   1.403       .  A
C563        C564   1.402       .  A
C563        H567   1.084       .  S
C564        C565   1.399       .  A
C564       C1118   1.476       .  S
C565        H568   1.084       .  S
C569        C570   1.401       .  A
C569        C574   1.395   1_455  A
C569       C1217   1.470       .  S
C570        C571   1.404       .  A
C570        H575   1.084       .  S
C571        C572   1.405   1_455  A
C572        C573   1.402       .  A
C572        H576   1.084       .  S
C573        C574   1.396       .  A
C573       C1361   1.470       .  S
C574        H577   1.085       .  S
C578        C579   1.407       .  A
C578        C583   1.395       .  A
C578       C1201   1.476       .  S
C579        C580   1.409       .  A
C579        H584   1.083       .  S
C580        C581   1.407       .  A
C581        C582   1.404       .  A
C581        H585   1.084       .  S
C582        C583   1.394       .  A
C582       C1313   1.475       .  S
C583        H586   1.085       .  S
C587        C588   1.408       .  A
C587        C592   1.401       .  A
C587       C1105   1.492       .  S
C588        C589   1.406       .  A
C588        H593   1.084       .  S
C589        C590   1.409       .  A
C590        C591   1.408       .  A
C590        H594   1.083       .  S
C591        C592   1.399       .  A
C591       C1297   1.481       .  S
C592        H595   1.083       .  S
C596        C597   1.406       .  A
C596        C601   1.398       .  A
C596        C897   1.481       .  S
C597        C598   1.409       .  A
C597        H602   1.083       .  S
C598        C599   1.407       .  A
C599        C600   1.404       .  A
C599        H603   1.084       .  S
C600        C601   1.398       .  A
C600       C1281   1.476       .  S
C601        H604   1.085       .  S
C605        C606   1.404       .  A
C605        C610   1.410       .  A
C605        H612   1.085       .  S
C606        C607   1.423       .  A
C607        C608   1.403       .  A
C607        C614   1.523       .  S
C608        C609   1.399       .  A
C608        H613   1.084       .  S
C609        C610   1.420       .  A
C610        C611   1.519       .  S
C611        F615   1.383       .  S
C611        F616   1.380       .  S
C611        F617   1.383       .  S
C614        F618   1.384       .  S
C614        F619   1.383       .  S
C614        F620   1.384       .  S
C621        C622   1.409       .  A
C621        C626   1.404       .  A
C621        H628   1.083       .  S
C622        C623   1.424       .  A
C623        C624   1.414       .  A
C623        C630   1.519       .  S
C624        C625   1.403       .  A
C624        H629   1.083       .  S
C625        C626   1.411       .  A
C626        C627   1.520       .  S
C627        F631   1.384       .  S
C627        F632   1.382       .  S
C627        F633   1.383       .  S
C630        F634   1.384       .  S
C630        F635   1.383       .  S
C630        F636   1.384       .  S
C637        C638   1.407       .  A
C637        C642   1.406       .  A
C637        H644   1.083       .  S
C638        C639   1.420       .  A
C639        C640   1.410       .  A
C639        C646   1.518       .  S
C640        C641   1.401       .  A
C640        H645   1.083       .  S
C641        C642   1.413       .  A
C642        C643   1.519       .  S
C643        F647   1.382       .  S
C643        F648   1.384       .  S
C643        F649   1.384       .  S
C646        F650   1.384       .  S
C646        F651   1.382       .  S
C646        F652   1.385       .  S
C653        C654   1.399       .  A
C653        C658   1.401       .  A
C653        H660   1.084       .  S
C654        C655   1.419       .  A
C655        C656   1.408       .  A
C655        C662   1.519       .  S
C656        C657   1.402       .  A
C656        H661   1.084       .  S
C657        C658   1.415       .  A
C658        C659   1.520       .  S
C659        F663   1.384       .  S
C659        F664   1.384       .  S
C659        F665   1.382       .  S
C662        F666   1.384       .  S
C662        F667   1.382       .  S
C662        F668   1.382       .  S
C669        C670   1.401       .  A
C669        C674   1.405       .  A
C669        H676   1.083       .  S
C670        C671   1.411       .  A
C671        C672   1.396       .  A
C671        C678   1.521       .  S
C672        C673   1.403       .  A
C672        H677   1.084       .  S
C673        C674   1.415       .  A
C674        C675   1.517       .  S
C675        F679   1.385       .  S
C675        F680   1.383       .  S
C675        F681   1.382       .  S
C678        F682   1.385       .  S
C678        F683   1.381       .  S
C678        F684   1.383       .  S
C685        C686   1.404       .  A
C685        C690   1.407       .  A
C685        H692   1.083       .  S
C686        C687   1.418       .  A
C687        C688   1.401       .  A
C687        C694   1.521       .  S
C688        C689   1.398       .  A
C688        H693   1.084       .  S
C689        C690   1.414       .  A
C690        C691   1.517       .  S
C691        F695   1.385       .  S
C691        F696   1.383       .  S
C691        F697   1.383       .  S
C694        F698   1.384       .  S
C694        F699   1.382       .  S
C694        F700   1.385       .  S
C701        C702   1.409       .  A
C701        C706   1.409       .  A
C701        H708   1.083       .  S
C702        C703   1.434       .  A
C703        C704   1.403       .  A
C703        C710   1.525       .  S
C704        C705   1.393       .  A
C704        H709   1.084       .  S
C705        C706   1.413       .  A
C706        C707   1.518       .  S
C707        F711   1.383       .  S
C707        F712   1.382       .  S
C707        F713   1.384       .  S
C710        F714   1.381       .  S
C710        F715   1.384       .  S
C710        F716   1.385       .  S
C717        C718   1.395       .  A
C717        C722   1.406       .  A
C717        H724   1.083       .  S
C718        C719   1.415       .  A
C719        C720   1.413       .  A
C719        C726   1.518       .  S
C720        C721   1.409       .  A
C720        H725   1.082       .  S
C721        C722   1.434       .  A
C722        C723   1.525       .  S
C723        F727   1.385       .  S
C723        F728   1.383       .  S
C723        F729   1.384       .  S
C726        F730   1.383       .  S
C726        F731   1.382       .  S
C726        F732   1.384       .  S
C733        C734   1.399       .  A
C733        C738   1.403       .  A
C733        H740   1.084       .  S
C734        C735   1.414       .  A
C735        C736   1.409       .  A
C735        C742   1.515       .  S
C736        C737   1.404       .  A
C736        H741   1.083       .  S
C737        C738   1.420       .  A
C738        C739   1.521       .  S
C739        F743   1.385       .  S
C739        F744   1.382       .  S
C739        F745   1.383       .  S
C742        F746   1.382       .  S
C742        F747   1.383       .  S
C742        F748   1.385       .  S
C749        C750   1.406       .  A
C749        C754   1.406       .  A
C749        H756   1.083       .  S
C750        C751   1.420       .  A
C751        C752   1.409       .  A
C751        C758   1.519       .  S
C752        C753   1.402       .  A
C752        H757   1.083       .  S
C753        C754   1.414       .  A
C754        C755   1.520       .  S
C755        F759   1.385       .  S
C755        F760   1.383       .  S
C755        F761   1.382       .  S
C758        F762   1.383       .  S
C758        F763   1.383       .  S
C758        F764   1.385       .  S
C765        C766   1.408       .  A
C765        C770   1.412       .  A
C765        H772   1.083       .  S
C766        C767   1.430       .  A
C767        C768   1.402       .  A
C767        C774   1.524       .  S
C768        C769   1.394       .  A
C768        H773   1.084       .  S
C769        C770   1.413       .  A
C770        C771   1.516       .  S
C771        F775   1.385       .  S
C771        F776   1.383       .  S
C771        F777   1.383       .  S
C774        F778   1.384       .  S
C774        F779   1.384       .  S
C774        F780   1.385       .  S
C781        C782   1.404       .  A
C781        C786   1.407       .  A
C781        H788   1.083       .  S
C782        C783   1.420       .  A
C783        C784   1.399       .  A
C783        C790   1.520       .  S
C784        C785   1.397       .  A
C784        H789   1.084       .  S
C785        C786   1.413       .  A
C786        C787   1.517       .  S
C787        F791   1.384       .  S
C787        F792   1.383       .  S
C787        F793   1.382       .  S
C790        F794   1.380       .  S
C790        F795   1.384       .  S
C790        F796   1.385       .  S
C797        C798   1.407       .  A
C797        C802   1.414       .  A
C797        H804   1.083       .  S
C798        C799   1.427       .  A
C799        C800   1.408       .  A
C799        C806   1.523       .  S
C800        C801   1.399       .  A
C800        H805   1.083       .  S
C801        C802   1.416       .  A
C802        C803   1.516       .  S
C803        F807   1.383       .  S
C803        F808   1.383       .  S
C803        F809   1.384       .  S
C806        F810   1.383       .  S
C806        F811   1.384       .  S
C806        F812   1.385       .  S
C813        C814   1.402       .  A
C813        C818   1.408       .  A
C813        H820   1.083       .  S
C814        C815   1.419       .  A
C815        C816   1.402       .  A
C815        C822   1.522       .  S
C816        C817   1.401       .  A
C816        H821   1.084       .  S
C817        C818   1.417       .  A
C818        C819   1.518       .  S
C819        F823   1.385       .  S
C819        F824   1.381       .  S
C819        F825   1.383       .  S
C822        F826   1.382       .  S
C822        F827   1.384       .  S
C822        F828   1.385       .  S
C829        C830   1.399       .  A
C829        C834   1.404       .  A
C829        H836   1.084       .  S
C830        C831   1.415       .  A
C831        C832   1.410       .  A
C831        C838   1.518       .  S
C832        C833   1.406       .  A
C832        H837   1.083       .  S
C833        C834   1.423       .  A
C834        C835   1.522       .  S
C835        F839   1.385       .  S
C835        F840   1.382       .  S
C835        F841   1.384       .  S
C838        F842   1.383       .  S
C838        F843   1.382       .  S
C838        F844   1.384       .  S
C845        C846   1.402       .  A
C845        C850   1.401       .  A
C845        H852   1.084       .  S
C846        C847   1.416       .  A
C847        C848   1.408       .  A
C847        C854   1.519       .  S
C848        C849   1.404       .  A
C848        H853   1.083       .  S
C849        C850   1.414       .  A
C850        C851   1.519       .  S
C851        F855   1.385       .  S
C851        F856   1.383       .  S
C851        F857   1.382       .  S
C854        F858   1.382       .  S
C854        F859   1.384       .  S
C854        F860   1.384       .  S
C861        C862   1.405       .  A
C861        C866   1.413       .  A
C861        H868   1.083       .  S
C862        C863   1.421       .  A
C863        C864   1.404       .  A
C863        C870   1.521       .  S
C864        C865   1.400       .  A
C864        H869   1.083       .  S
C865        C866   1.418       .  A
C866        C867   1.518       .  S
C867        F871   1.382       .  S
C867        F872   1.383       .  S
C867        F873   1.385       .  S
C870        F874   1.383       .  S
C870        F875   1.383       .  S
C870        F876   1.385       .  S
C877        C878   1.399       .  A
C877        C882   1.404       .  A
C877        H884   1.084       .  S
C878        C879   1.415       .  A
C879        C880   1.409       .  A
C879        C886   1.518       .  S
C880        C881   1.406       .  A
C880        H885   1.083       .  S
C881        C882   1.420       .  A
C882        C883   1.520       .  S
C883        F887   1.385       .  S
C883        F888   1.382       .  S
C883        F889   1.384       .  S
C886        F890   1.383       .  S
C886        F891   1.382       .  S
C886        F892   1.385       .  S
C893        C894   1.413       .  A
C893        C898   1.402       .  A
C893        H900   1.082       .  S
C894        C895   1.422       .  A
C895        C896   1.414       .  A
C895        C902   1.518       .  S
C896        C897   1.405       .  A
C896        H901   1.083       .  S
C897        C898   1.410       .  A
C898        C899   1.521       .  S
C899        F903   1.382       .  S
C899        F904   1.381       .  S
C899        F905   1.385       .  S
C902        F906   1.384       .  S
C902        F907   1.383       .  S
C902        F908   1.385       .  S
C909        C910   1.409       .  A
C909        C914   1.402       .  A
C909        H916   1.083       .  S
C910        C911   1.422       .  A
C911        C912   1.414       .  A
C911        C918   1.518       .  S
C912        C913   1.404       .  A
C912        H917   1.083       .  S
C913        C914   1.410       .  A
C914        C915   1.520       .  S
C915        F919   1.384       .  S
C915        F920   1.383       .  S
C915        F921   1.383       .  S
C918        F922   1.384       .  S
C918        F923   1.382       .  S
C918        F924   1.385       .  S
C925        C926   1.398       .  A
C925        C930   1.402       .  A
C925        H932   1.084       .  S
C926        C927   1.413       .  A
C927        C928   1.408       .  A
C927        C934   1.517       .  S
C928        C929   1.406       .  A
C928        H933   1.083       .  S
C929        C930   1.422       .  A
C930        C931   1.522       .  S
C931        F935   1.385       .  S
C931        F936   1.384       .  S
C931        F937   1.382       .  S
C934        F938   1.382       .  S
C934        F939   1.383       .  S
C934        F940   1.385       .  S
C941        C942   1.413       .  A
C941        C946   1.403       .  A
C941        H948   1.082       .  S
C942        C943   1.422       .  A
C943        C944   1.408       .  A
C943        C950   1.517       .  S
C944        C945   1.400       .  A
C944        H949   1.083       .  S
C945        C946   1.408       .  A
C946        C947   1.520       .  S
C947        F951   1.385       .  S
C947        F952   1.383       .  S
C947        F953   1.383       .  S
C950        F954   1.384       .  S
C950        F955   1.382       .  S
C950        F956   1.385       .  S
C957        C958   1.403       .  A
C957        C962   1.410       .  A
C957        H964   1.083       .  S
C958        C959   1.420       .  A
C959        C960   1.404       .  A
C959        C966   1.521       .  S
C960        C961   1.398       .  A
C960        H965   1.084       .  S
C961        C962   1.415       .  A
C962        C963   1.517       .  S
C963        F967   1.384       .  S
C963        F968   1.383       .  S
C963        F969   1.383       .  S
C966        F970   1.384       .  S
C966        F971   1.382       .  S
C966        F972   1.385       .  S
C973        C974   1.398       .  A
C973        C978   1.404       .  A
C973        H980   1.085       .  S
C974        C975   1.416       .  A
C975        C976   1.405       .  A
C975        C982   1.520       .  S
C976        C977   1.402       .  A
C976        H981   1.084       .  S
C977        C978   1.420       .  A
C978        C979   1.519       .  S
C979        F983   1.383       .  S
C979        F984   1.380       .  S
C979        F985   1.383       .  S
C982        F986   1.384       .  S
C982        F987   1.383       .  S
C982        F988   1.385       .  S
C989        C990   1.411       .  A
C989        C994   1.412       .  A
C989        H996   1.083       .  S
C990        C991   1.423       .  A
C991        C992   1.402       .  A
C991        C998   1.522       .  S
C992        C993   1.408       .  A
C992        H997   1.083       .  S
C993        C994   1.420       .  A
C994        C995   1.518       .  S
C995        F999   1.385       .  S
C995       F1000   1.381       .  S
C995       F1001   1.383       .  S
C998       F1002   1.376       .  S
C998       F1003   1.384       .  S
C998       F1004   1.386       .  S
C1005      C1006   1.402       .  A
C1005      C1010   1.408       .  A
C1005      H1012   1.083       .  S
C1006      C1007   1.419       .  A
C1007      C1008   1.404       .  A
C1007      C1014   1.519       .  S
C1008      C1009   1.398       .  A
C1008      H1013   1.084       .  S
C1009      C1010   1.415       .  A
C1010      C1011   1.517       .  S
C1011      F1015   1.383       .  S
C1011      F1016   1.384       .  S
C1011      F1017   1.382       .  S
C1014      F1018   1.383       .  S
C1014      F1019   1.382       .  S
C1014      F1020   1.386       .  S
C1021      C1022   1.412       .  A
C1021      C1026   1.402       .  A
C1021      H1028   1.082       .  S
C1022      C1023   1.425       .  A
C1023      C1024   1.414       .  A
C1023      C1030   1.519       .  S
C1024      C1025   1.403       .  A
C1024      H1029   1.083       .  S
C1025      C1026   1.410       .  A
C1026      C1027   1.522       .  S
C1027      F1031   1.382       .  S
C1027      F1032   1.383       .  S
C1027      F1033   1.384       .  S
C1030      F1034   1.384       .  S
C1030      F1035   1.383       .  S
C1030      F1036   1.384       .  S
C1037      C1038   1.408       .  A
C1037      C1042   1.412       .  A
C1037      H1044   1.084       .  S
C1038      C1039   1.429       .  A
C1039      C1040   1.407       .  A
C1039      C1046   1.517       .  S
C1040      C1041   1.400       .  A
C1040      H1045   1.083       .  S
C1041      C1042   1.421       .  A
C1042      C1043   1.517       .  S
C1043      F1047   1.385       .  S
C1043      F1048   1.382       .  S
C1043      F1049   1.382       .  S
C1046      F1050   1.383       .  S
C1046      F1051   1.383       .  S
C1046      F1052   1.385       .  S
C1053      C1054   1.402       .  A
C1053      C1058   1.406       .  A
C1053      H1060   1.083       .  S
C1054      C1055   1.414       .  A
C1055      C1056   1.406       .  A
C1055      C1062   1.518       .  S
C1056      C1057   1.405       .  A
C1056      H1061   1.083       .  S
C1057      C1058   1.421       .  A
C1058      C1059   1.522       .  S
C1059      F1063   1.385       .  S
C1059      F1064   1.384       .  S
C1059      F1065   1.383       .  S
C1062      F1066   1.384       .  S
C1062      F1067   1.384       .  S
C1062      F1068   1.382       .  S
C1069      C1070   1.408       .  A
C1069      C1074   1.407       .  A
C1069      H1076   1.083       .  S
C1070      C1071   1.430       .  A
C1071      C1072   1.406       .  A
C1071      C1078   1.524       .  S
C1072      C1073   1.396       .  A
C1072      H1077   1.083       .  S
C1073      C1074   1.412       .  A
C1074      C1075   1.517       .  S
C1075      F1079   1.385       .  S
C1075      F1080   1.382       .  S
C1075      F1081   1.383       .  S
C1078      F1082   1.383       .  S
C1078      F1083   1.384       .  S
C1078      F1084   1.385       .  S
C1085      C1086   1.400       .  A
C1085      C1090   1.410       .  A
C1085      H1092   1.083       .  S
C1086      C1087   1.415       .  A
C1087      C1088   1.403       .  A
C1087      C1094   1.523       .  S
C1088      C1089   1.406       .  A
C1088      H1093   1.084       .  S
C1089      C1090   1.419       .  A
C1090      C1091   1.517       .  S
C1091      F1095   1.384       .  S
C1091      F1096   1.384       .  S
C1091      F1097   1.381       .  S
C1094      F1098   1.384       .  S
C1094      F1099   1.382       .  S
C1094      F1100   1.385       .  S
C1101      C1102   1.406       .  A
C1101      C1106   1.410       .  A
C1101      H1108   1.084       .  S
C1102      C1103   1.427       .  A
C1103      C1104   1.403       .  A
C1103      C1110   1.521       .  S
C1104      C1105   1.400       .  A
C1104      H1109   1.083       .  S
C1105      C1106   1.422       .  A
C1106      C1107   1.518       .  S
C1107      F1111   1.384       .  S
C1107      F1112   1.383       .  S
C1107      F1113   1.383       .  S
C1110      F1114   1.383       .  S
C1110      F1115   1.384       .  S
C1110      F1116   1.385       .  S
C1117      C1118   1.404       .  A
C1117      C1122   1.406       .  A
C1117      H1124   1.083       .  S
C1118      C1119   1.416       .  A
C1119      C1120   1.406       .  A
C1119      C1126   1.519       .  S
C1120      C1121   1.402       .  A
C1120      H1125   1.084       .  S
C1121      C1122   1.410       .  A
C1122      C1123   1.515       .  S
C1123      F1127   1.384       .  S
C1123      F1128   1.383       .  S
C1123      F1129   1.383       .  S
C1126      F1130   1.383       .  S
C1126      F1131   1.382       .  S
C1126      F1132   1.385       .  S
C1133      C1134   1.402       .  A
C1133      C1138   1.403       .  A
C1133      H1140   1.084       .  S
C1134      C1135   1.417       .  A
C1135      C1136   1.411       .  A
C1135      C1142   1.518       .  S
C1136      C1137   1.406       .  A
C1136      H1141   1.083       .  S
C1137      C1138   1.418       .  A
C1138      C1139   1.520       .  S
C1139      F1143   1.385       .  S
C1139      F1144   1.384       .  S
C1139      F1145   1.382       .  S
C1142      F1146   1.385       .  S
C1142      F1147   1.383       .  S
C1142      F1148   1.382       .  S
C1149      C1150   1.408       .  A
C1149      C1154   1.407       .  A
C1149      H1156   1.084       .  S
C1150      C1151   1.424       .  A
C1151      C1152   1.405       .  A
C1151      C1158   1.523       .  S
C1152      C1153   1.408       .  A
C1152      H1157   1.081       .  S
C1153      C1154   1.422       .  A
C1154      C1155   1.519       .  S
C1155      F1159   1.385       .  S
C1155      F1160   1.383       .  S
C1155      F1161   1.382       .  S
C1158      F1162   1.381       .  S
C1158      F1163   1.384       .  S
C1158      F1164   1.385       .  S
C1165      C1166   1.400       .  A
C1165      C1170   1.406       .  A
C1165      H1172   1.083       .  S
C1166      C1167   1.416       .  A
C1167      C1168   1.407       .  A
C1167      C1174   1.517       .  S
C1168      C1169   1.403       .  A
C1168      H1173   1.083       .  S
C1169      C1170   1.418       .  A
C1170      C1171   1.519       .  S
C1171      F1175   1.385       .  S
C1171      F1176   1.384       .  S
C1171      F1177   1.382       .  S
C1174      F1178   1.382       .  S
C1174      F1179   1.382       .  S
C1174      F1180   1.385       .  S
C1181      C1182   1.400       .  A
C1181      C1186   1.405       .  A
C1181      H1188   1.083       .  S
C1182      C1183   1.417       .  A
C1183      C1184   1.415       .  A
C1183      C1190   1.517       .  S
C1184      C1185   1.407       .  A
C1184      H1189   1.083       .  S
C1185      C1186   1.423       .  A
C1186      C1187   1.523       .  S
C1187      F1191   1.384       .  S
C1187      F1192   1.384       .  S
C1187      F1193   1.382       .  S
C1190      F1194   1.384       .  S
C1190      F1195   1.383       .  S
C1190      F1196   1.382       .  S
C1197      C1198   1.404       .  A
C1197      C1202   1.408       .  A
C1197      H1204   1.083       .  S
C1198      C1199   1.422       .  A
C1199      C1200   1.403       .  A
C1199      C1206   1.522       .  S
C1200      C1201   1.400       .  A
C1200      H1205   1.084       .  S
C1201      C1202   1.413       .  A
C1202      C1203   1.515       .  S
C1203      F1207   1.382       .  S
C1203      F1208   1.385       .  S
C1203      F1209   1.383       .  S
C1206      F1210   1.383       .  S
C1206      F1211   1.382       .  S
C1206      F1212   1.386       .  S
C1213      C1214   1.402       .  A
C1213      C1218   1.408       .  A
C1213      H1220   1.083       .  S
C1214      C1215   1.418       .  A
C1215      C1216   1.402       .  A
C1215      C1222   1.521       .  S
C1216      C1217   1.398       .  A
C1216      H1221   1.084       .  S
C1217      C1218   1.414       .  A
C1218      C1219   1.517       .  S
C1219      F1223   1.384       .  S
C1219      F1224   1.383       .  S
C1219      F1225   1.383       .  S
C1222      F1226   1.383       .  S
C1222      F1227   1.383       .  S
C1222      F1228   1.385       .  S
C1229      C1230   1.407       .  A
C1229      C1234   1.410       .  A
C1229      H1236   1.083       .  S
C1230      C1231   1.428       .  A
C1231      C1232   1.405       .  A
C1231      C1238   1.523       .  S
C1232      C1233   1.397       .  A
C1232      H1237   1.084       .  S
C1233      C1234   1.417       .  A
C1234      C1235   1.520       .  S
C1235      F1239   1.384       .  S
C1235      F1240   1.381       .  S
C1235      F1241   1.383       .  S
C1238      F1242   1.384       .  S
C1238      F1243   1.383       .  S
C1238      F1244   1.385       .  S
C1245      C1246   1.400       .  A
C1245      C1250   1.404       .  A
C1245      H1252   1.084       .  S
C1246      C1247   1.415       .  A
C1247      C1248   1.407       .  A
C1247      C1254   1.517       .  S
C1248      C1249   1.402       .  A
C1248      H1253   1.083       .  S
C1249      C1250   1.419       .  A
C1250      C1251   1.522       .  S
C1251      F1255   1.384       .  S
C1251      F1256   1.384       .  S
C1251      F1257   1.382       .  S
C1254      F1258   1.383       .  S
C1254      F1259   1.383       .  S
C1254      F1260   1.384       .  S
C1261      C1262   1.404       .  A
C1261      C1266   1.409       .  A
C1261      H1268   1.083       .  S
C1262      C1263   1.421       .  A
C1263      C1264   1.405       .  A
C1263      C1270   1.521       .  S
C1264      C1265   1.398       .  A
C1264      H1269   1.084       .  S
C1265      C1266   1.414       .  A
C1266      C1267   1.517       .  S
C1267      F1271   1.384       .  S
C1267      F1272   1.383       .  S
C1267      F1273   1.383       .  S
C1270      F1274   1.384       .  S
C1270      F1275   1.382       .  S
C1270      F1276   1.385       .  S
C1277      C1278   1.406       .  A
C1277      C1282   1.401       .  A
C1277      H1284   1.083       .  S
C1278      C1279   1.419       .  A
C1279      C1280   1.410       .  A
C1279      C1286   1.518       .  S
C1280      C1281   1.403       .  A
C1280      H1285   1.083       .  S
C1281      C1282   1.412       .  A
C1282      C1283   1.518       .  S
C1283      F1287   1.385       .  S
C1283      F1288   1.380       .  S
C1283      F1289   1.383       .  S
C1286      F1290   1.383       .  S
C1286      F1291   1.384       .  S
C1286      F1292   1.384       .  S
C1293      C1294   1.407       .  A
C1293      C1298   1.405       .  A
C1293      H1300   1.083       .  S
C1294      C1295   1.420       .  A
C1295      C1296   1.412       .  A
C1295      C1302   1.519       .  S
C1296      C1297   1.404       .  A
C1296      H1301   1.083       .  S
C1297      C1298   1.412       .  A
C1298      C1299   1.519       .  S
C1299      F1303   1.383       .  S
C1299      F1304   1.384       .  S
C1299      F1305   1.383       .  S
C1302      F1306   1.383       .  S
C1302      F1307   1.384       .  S
C1302      F1308   1.384       .  S
C1309      C1310   1.412       .  A
C1309      C1314   1.401       .  A
C1309      H1316   1.082       .  S
C1310      C1311   1.426       .  A
C1311      C1312   1.411       .  A
C1311      C1318   1.520       .  S
C1312      C1313   1.402       .  A
C1312      H1317   1.083       .  S
C1313      C1314   1.410       .  A
C1314      C1315   1.522       .  S
C1315      F1319   1.384       .  S
C1315      F1320   1.384       .  S
C1315      F1321   1.381       .  S
C1318      F1322   1.384       .  S
C1318      F1323   1.383       .  S
C1318      F1324   1.385       .  S
C1325      C1326   1.407       .  A
C1325      C1330   1.407       .  A
C1325      H1332   1.083       .  S
C1326      C1327   1.421       .  A
C1327      C1328   1.403       .  A
C1327      C1334   1.521       .  S
C1328      C1329   1.400       .  A
C1328      H1333   1.084       .  S
C1329      C1330   1.414       .  A
C1330      C1331   1.519       .  S
C1331      F1335   1.384       .  S
C1331      F1336   1.383       .  S
C1331      F1337   1.382       .  S
C1334      F1338   1.383       .  S
C1334      F1339   1.384       .  S
C1334      F1340   1.385       .  S
C1341      C1342   1.405       .  A
C1341      C1346   1.401       .  A
C1341      H1348   1.083       .  S
C1342      C1343   1.418       .  A
C1343      C1344   1.407       .  A
C1343      C1350   1.519       .  S
C1344      C1345   1.403       .  A
C1344      H1349   1.083       .  S
C1345      C1346   1.414       .  A
C1346      C1347   1.520       .  S
C1347      F1351   1.385       .  S
C1347      F1352   1.383       .  S
C1347      F1353   1.381       .  S
C1350      F1354   1.383       .  S
C1350      F1355   1.383       .  S
C1350      F1356   1.384       .  S
C1357      C1358   1.403       .  A
C1357      C1362   1.403       .  A
C1357      H1364   1.084       .  S
C1358      C1359   1.415       .  A
C1359      C1360   1.406       .  A
C1359      C1366   1.517       .  S
C1360      C1361   1.402       .  A
C1360      H1365   1.083       .  S
C1361      C1362   1.412       .  A
C1362      C1363   1.519       .  S
C1363      F1367   1.385       .  S
C1363      F1368   1.383       .  S
C1363      F1369   1.382       .  S
C1366      F1370   1.382       .  S
C1366      F1371   1.383       .  S
C1366      F1372   1.385       .  S
