geometry optimzed in LAMMPS
_audit_creation_date              2020-11-30 
_audit_creation_method            'lammps2cif' 
_symmetry_space_group_name_H-M    'P1' 
_symmetry_Int_Tables_number       1 
_symmetry_cell_setting            triclinic 
loop_ 
_symmetry_equiv_pos_as_xyz 
  x,y,z 
_cell_length_a                    30.84681267 
_cell_length_b                    30.363477360367714 
_cell_length_c                    24.668154884192912 
_cell_angle_alpha                 88.71690007962931 
_cell_angle_beta                  89.60073309706654 
_cell_angle_gamma                 89.94978678675669 
loop_ 
_atom_site_label 
_atom_site_type_symbol 
_atom_site_fract_x 
_atom_site_fract_y 
_atom_site_fract_z 
_atom_site_charge 
C1          C  0.38838974  0.85381620  0.02861182     0.85500
C2          C  0.38770900  0.89511527  0.99185540    -0.54700
C3          C  0.34999335  0.90086339  0.96417164     0.08500
C4          C  0.31506214  0.86493322  0.97725720     0.19400
C5          C  0.34927576  0.85942855  0.06567922    -0.55400
C6          C  0.31048583  0.86314417  0.04021390     0.08600
C7          C  0.37694076  0.81633043  0.99110596    -0.54900
C8          C  0.33898353  0.82198089  0.96395908     0.09100
H9          H  0.41403920  0.91831470  0.98703222     0.13700
H10         H  0.28398544  0.86955596  0.95539507    -0.00600
H11         H  0.35230103  0.85927407  0.10956570     0.14000
H12         H  0.39731718  0.78741112  0.98644803     0.13800
C13         C  0.14230248  0.86232647  0.48088832     0.85500
C14         C  0.14074293  0.89979310  0.52150404    -0.54700
C15         C  0.17780192  0.90367111  0.55104696     0.08500
C16         C  0.21374674  0.86927336  0.53697482     0.19400
C17         C  0.18274349  0.87111183  0.44662582    -0.55400
C18         C  0.22031426  0.87407202  0.47454824     0.08600
C19         C  0.15306303  0.82175678  0.51673600    -0.54900
C20         C  0.19054940  0.82458091  0.54483474     0.09100
H21         H  0.11280561  0.92012509  0.52954142     0.13700
H22         H  0.24413095  0.87234300  0.56046033    -0.00600
H23         H  0.18168537  0.87359024  0.40257658     0.14000
H24         H  0.13334534  0.79207109  0.51816475     0.13800
In25       In  0.20680936  0.00734600  0.64831836     1.36900
C26         C  0.18272524  0.93955053  0.59003312     0.76600
O27         O  0.14203786  0.02383551  0.69247164    -0.61800
O28         O  0.17587694  0.07472831  0.65076899    -0.52700
C29         C  0.25387487  0.00669539  0.73729654     0.69300
O30         O  0.22891371  0.97492038  0.72673717    -0.47600
C31         C  0.27459519  0.01609531  0.58111683     0.74000
O32         O  0.20020707  0.93429898  0.63582672    -0.59400
O33         O  0.24098059  0.03950704  0.57379380    -0.49500
O34         O  0.17135420  0.97864256  0.57860537    -0.55900
C35         C  0.14350046  0.06459442  0.68038136     0.84200
O36         O  0.25278606  0.03879403  0.70401231    -0.57800
O37         O  0.27238999  0.99007333  0.62128908    -0.61100
In38       In  0.32964214  0.01365017  0.87323342     1.36900
C39         C  0.34528161  0.93889841  0.92633569     0.76600
O40         O  0.39404182  0.02650486  0.82518355    -0.61800
O41         O  0.36780950  0.07636723  0.87371854    -0.52700
C42         C  0.28218257  0.00763162  0.78451277     0.69300
O43         O  0.29730658  0.97370201  0.80825519    -0.47600
C44         C  0.26848044  0.03436685  0.94473711     0.74000
O45         O  0.31575326  0.94185074  0.89136369    -0.59400
O46         O  0.30456238  0.02072320  0.96138574    -0.49500
O47         O  0.37002883  0.97209618  0.92827961    -0.55900
C48         C  0.39680759  0.06611463  0.83966779     0.84200
O49         O  0.29342411  0.04362647  0.80432702    -0.57800
O50         O  0.26829435  0.04559584  0.89544194    -0.61100
C51         C  0.06994305  0.15980188  0.65289344     0.85500
C52         C  0.04645064  0.12261036  0.62325175    -0.54700
C53         C  0.04190697  0.08462055  0.65366329     0.08500
C54         C  0.06103477  0.08649603  0.71022856     0.19400
C55         C  0.04341295  0.16455192  0.70430140    -0.55400
C56         C  0.03693824  0.12723177  0.73530687     0.08600
C57         C  0.11293712  0.13864936  0.66989406    -0.54900
C58         C  0.10940497  0.09830992  0.69568295     0.09100
H59         H  0.03110892  0.12573375  0.58404437     0.13700
H60         H  0.05705905  0.05549103  0.73447181    -0.00600
H61         H  0.02701939  0.19549545  0.71096787     0.14000
H62         H  0.14334279  0.15068958  0.65269835     0.13800
C63         C  0.46362245  0.16664097  0.85350375     0.85500
C64         C  0.98576363  0.13413667  0.89298548    -0.54700
C65         C  0.99590971  0.09448046  0.87100137     0.08500
C66         C  0.48006754  0.08927962  0.81303364     0.19400
C67         C  0.49281113  0.16823129  0.80382746    -0.55400
C68         C  0.50303824  0.12855624  0.78141802     0.08600
C69         C  0.42306322  0.14156880  0.83622234    -0.54900
C70         C  0.43037350  0.09934711  0.81994366     0.09100
H71         H  0.99718362  0.14332313  0.93270825     0.13700
H72         H  0.48706048  0.05638686  0.79622811    -0.00600
H73         H  0.50696503  0.19943104  0.79124091     0.14000
H74         H  0.39083986  0.15208309  0.84808669     0.13800
C75         C  0.38912022  0.36611531  0.03681306     0.85500
C76         C  0.42899361  0.35887109  0.07223044    -0.54700
C77         C  0.46764266  0.36011819  0.04508397     0.08500
C78         C  0.46223865  0.36722813  0.98260582     0.19400
C79         C  0.39669155  0.40840060  0.00477653    -0.55400
C80         C  0.43380006  0.40925409  0.97518451     0.08600
C81         C  0.39338339  0.32907166  0.99578535    -0.54900
C82         C  0.43123541  0.32963848  0.96654447     0.09100
H83         H  0.42708018  0.35138346  0.11529104     0.13700
H84         H  0.49324149  0.36841335  0.95949609    -0.00600
H85         H  0.37309598  0.43504435  0.00373875     0.14000
H86         H  0.36937841  0.30316007  0.99237898     0.13800
C87         C  0.13803215  0.37370135  0.48208904     0.85500
C88         C  0.09748797  0.38262063  0.44828657    -0.54700
C89         C  0.05947172  0.38024074  0.47584452     0.08500
C90         C  0.06538371  0.37316532  0.53778186     0.19400
C91         C  0.13592496  0.40991434  0.52382772    -0.55400
C92         C  0.09842464  0.40956388  0.55378799     0.08600
C93         C  0.12915623  0.33078789  0.51411237    -0.54900
C94         C  0.09151460  0.33013876  0.54269078     0.09100
H95         H  0.09885591  0.38877305  0.40467468     0.13700
H96         H  0.03452869  0.37299845  0.56123719    -0.00600
H97         H  0.15913337  0.43631096  0.52675645     0.14000
H98         H  0.15079379  0.30249905  0.51327990     0.13800
In99       In  0.06641375  0.51546222  0.64627758     1.36900
C100        C  0.08937060  0.44565159  0.59099759     0.76600
O101        O  0.99599166  0.51729783  0.62884202    -0.61800
O102        O  0.03535067  0.54071450  0.56457079    -0.52700
C103        C  0.02685392  0.51278983  0.74062048     0.69300
O104        O  0.04562991  0.47889051  0.72259852    -0.47600
C105        C  0.13504492  0.56610829  0.67836442     0.74000
O106        O  0.06343772  0.44246804  0.63060594    -0.59400
O107        O  0.10339305  0.58008564  0.65007209    -0.49500
O108        O  0.10655054  0.48308224  0.58402083    -0.55900
C109        C  0.99739422  0.53065239  0.58039501     0.84200
O110        O  0.02981681  0.54722635  0.71121820    -0.57800
O111        O  0.13261302  0.52524436  0.68898450    -0.61100
In112      In  0.45876927  0.52010406  0.88249723     1.36900
C113        C  0.44170397  0.44730671  0.93841241     0.76600
O114        O  0.02338888  0.54871436  0.90118171    -0.61800
O115        O  0.48663551  0.52851353  0.96923607    -0.52700
C116        C  0.50269012  0.51359419  0.79145711     0.69300
O117        O  0.48561390  0.47996877  0.81412642    -0.47600
C118        C  0.38825211  0.56738713  0.84603977     0.74000
O119        O  0.46782681  0.44704698  0.89875280    -0.59400
O120        O  0.41694875  0.58145601  0.87794952    -0.49500
O121        O  0.42188690  0.48333672  0.94502906    -0.55900
C122        C  0.02340182  0.53936970  0.95109920     0.84200
O123        O  0.49666935  0.54946042  0.81510463    -0.57800
O124        O  0.39369781  0.52734878  0.83515754    -0.61100
C125        C  0.30871715  0.65885634  0.85782916     0.85500
C126        C  0.35271999  0.63886152  0.84226370    -0.54700
C127        C  0.35150175  0.59650375  0.82504884     0.08500
C128        C  0.30361891  0.58086729  0.81524064     0.19400
C129        C  0.28118183  0.65776108  0.80774018    -0.55400
C130        C  0.27716239  0.61792545  0.78325698     0.08600
C131        C  0.28889748  0.62355723  0.89579273    -0.54900
C132        C  0.28553912  0.58287968  0.87307396     0.09100
H133        H  0.38274790  0.65315484  0.85635135     0.13700
H134        H  0.30158666  0.54795907  0.79752387    -0.00600
H135        H  0.26357246  0.68717371  0.79526289     0.14000
H136        H  0.27752457  0.63014430  0.93647610     0.13800
C137        C  0.21731840  0.65396396  0.65222079     0.85500
C138        C  0.17284360  0.63678533  0.67065651    -0.54700
C139        C  0.17265143  0.59558510  0.69418710     0.08500
C140        C  0.21990580  0.57861209  0.70660801     0.19400
C141        C  0.24561562  0.65453151  0.70177600    -0.55400
C142        C  0.24790202  0.61659759  0.73261802     0.08600
C143        C  0.23688542  0.61555329  0.62040101    -0.54900
C144        C  0.23808471  0.57582938  0.64871475     0.09100
H145        H  0.14345116  0.65240336  0.65555366     0.13700
H146        H  0.22004978  0.54729906  0.73029266    -0.00600
H147        H  0.26524351  0.68340853  0.70900769     0.14000
H148        H  0.25035794  0.61893686  0.58000709     0.13800
C149        C  0.14354639  0.52592490  0.98439221     0.85500
C150        C  0.13575599  0.48524932  0.01957673    -0.54700
C151        C  0.10000873  0.48711518  0.05167196     0.08500
C152        C  0.07310849  0.53005286  0.04364316     0.19400
C153        C  0.10244853  0.53351141  0.95159346    -0.55400
C154        C  0.06510097  0.53528552  0.98130781     0.08600
C155        C  0.14259982  0.56482325  0.02316097    -0.54900
C156        C  0.10645048  0.56688990  0.05547560     0.09100
H157        H  0.15815101  0.45756629  0.02041651     0.13700
H158        H  0.04314946  0.53077421  0.06876113    -0.00600
H159        H  0.10261927  0.54004732  0.90837251     0.14000
H160        H  0.16738005  0.59015011  0.02211762     0.13800
C161        C  0.37741466  0.52825434  0.53957140     0.85500
C162        C  0.38490375  0.49046203  0.50210690    -0.54700
C163        C  0.42177127  0.49336979  0.47248868     0.08500
C164        C  0.45035539  0.53427749  0.48516960     0.19400
C165        C  0.41778984  0.52968671  0.57543164    -0.55400
C166        C  0.45636417  0.53265273  0.54801997     0.08600
C167        C  0.38142900  0.57020008  0.50422237    -0.54900
C168        C  0.41920191  0.57381564  0.47491096     0.09100
H169        H  0.36189178  0.46357384  0.49836289     0.13700
H170        H  0.48156234  0.53593303  0.46269221    -0.00600
H171        H  0.41652298  0.52949413  0.61932434     0.14000
H172        H  0.35596335  0.59490288  0.50238031     0.13800
In173      In  0.07187599  0.37850619  0.14730781     1.36900
C174        C  0.09150726  0.45038798  0.09042359     0.76600
O175        O  0.13730394  0.36903013  0.19421515    -0.61800
O176        O  0.11234947  0.31673101  0.14961395    -0.52700
C177        C  0.02565189  0.38658402  0.23676929     0.69300
O178        O  0.04213066  0.41984521  0.21265650    -0.47600
C179        C  0.00832643  0.35819949  0.07742820     0.74000
O180        O  0.06456319  0.45179416  0.12914514    -0.59400
O181        O  0.04529973  0.36929539  0.06035465    -0.49500
O182        O  0.11103552  0.41402071  0.08590290    -0.55900
C183        C  0.14211166  0.32940350  0.18085001     0.84200
O184        O  0.03454129  0.34994129  0.21643121    -0.57800
O185        O  0.00724393  0.34994734  0.12755934    -0.61100
In186      In  0.45329198  0.39170443  0.37541303     1.36900
C187        C  0.43051507  0.45819098  0.43416794     0.76600
O188        O  0.38595013  0.37936582  0.33633804    -0.61800
O189        O  0.42077300  0.32658332  0.37286558    -0.52700
C190        C  0.49842465  0.38913923  0.28510662     0.69300
O191        O  0.47609868  0.42273315  0.29684508    -0.47600
C192        C  0.01938527  0.38354809  0.44366326     0.74000
O193        O  0.44808351  0.46420366  0.38825516    -0.59400
O194        O  0.48510268  0.36131385  0.45170813    -0.49500
O195        O  0.41937161  0.41899490  0.44539943    -0.55900
C196        C  0.38728053  0.33835467  0.34680784     0.84200
O197        O  0.49587412  0.35698045  0.31828625    -0.57800
O198        O  0.01917575  0.40725506  0.40126979    -0.61100
C199        C  0.31952939  0.23452259  0.35679756     0.85500
C200        C  0.28621684  0.26215455  0.38716336    -0.54700
C201        C  0.27909109  0.30275378  0.36481685     0.08500
C202        C  0.30478254  0.31304147  0.31336042     0.19400
C203        C  0.30429703  0.23429506  0.29827176    -0.55400
C204        C  0.29084064  0.27416692  0.27613410     0.08600
C205        C  0.35973297  0.26320770  0.35258620    -0.54900
C206        C  0.35309922  0.30506740  0.33278485     0.09100
H207        H  0.26857646  0.25006020  0.42279661     0.13700
H208        H  0.29832070  0.34638349  0.29584912    -0.00600
H209        H  0.30815744  0.20531376  0.27483873     0.14000
H210        H  0.39050510  0.25219585  0.36926093     0.13800
C211        C  0.21711350  0.23594269  0.15973221     0.85500
C212        C  0.23657222  0.27104526  0.12120386    -0.54700
C213        C  0.24276425  0.31121677  0.14424118     0.08500
C214        C  0.22831166  0.31262513  0.20369284     0.19400
C215        C  0.24636824  0.23450351  0.20803242    -0.55400
C216        C  0.25570951  0.27377724  0.23133971     0.08600
C217        C  0.17505407  0.25705799  0.17965819    -0.54900
C218        C  0.17909989  0.29895195  0.19799717     0.09100
H219        H  0.24669813  0.26388101  0.08013530     0.13700
H220        H  0.23275816  0.34495212  0.22297862    -0.00600
H221        H  0.25941329  0.20292856  0.22022047     0.14000
H222        H  0.14367074  0.24442618  0.16808599     0.13800
C223        C  0.39449779  0.02746939  0.54942525     0.85500
C224        C  0.35307452  0.01565327  0.58013901    -0.54700
C225        C  0.31613380  0.02067829  0.55128834     0.08500
C226        C  0.32450693  0.03236601  0.49070367     0.19400
C227        C  0.39465140  0.99518017  0.50298046    -0.55400
C228        C  0.35840541  0.99753403  0.47173457     0.08600
C229        C  0.38723300  0.07243383  0.52190471    -0.54900
C230        C  0.35053054  0.07587244  0.49162207     0.09100
H231        H  0.35296062  0.00472031  0.62238312     0.13700
H232        H  0.29431397  0.03354647  0.46654707    -0.00600
H233        H  0.41950231  0.97045613  0.49685624     0.14000
H234        H  0.41153111  0.09814170  0.52330729     0.13800
C235        C  0.14893117  0.03823683  0.97978886     0.85500
C236        C  0.19008005  0.03279896  0.94672724    -0.54700
C237        C  0.22730262  0.03266314  0.97575163     0.08500
C238        C  0.21936267  0.03233458  0.03801049     0.19400
C239        C  0.14927138  0.99817117  0.01861910    -0.55400
C240        C  0.18555616  0.99521990  0.04974135     0.08600
C241        C  0.15666452  0.07758150  0.01583780    -0.54900
C242        C  0.19279084  0.07428998  0.04695406     0.09100
H243        H  0.18968696  0.03062971  0.90279493     0.13700
H244        H  0.24929237  0.02997487  0.06266881    -0.00600
H245        H  0.12403135  0.97347076  0.02150968     0.14000
H246        H  0.13499899  0.10582121  0.01690419     0.13800
In247      In  0.20783892  0.88624777  0.14559683     1.36900
C248        C  0.19052867  0.95856940  0.08919729     0.76600
O249        O  0.27337302  0.86154020  0.12528565    -0.61800
O250        O  0.23283492  0.87271033  0.05830423    -0.52700
C251        C  0.25285101  0.89388779  0.23588644     0.69300
O252        O  0.23710550  0.92732076  0.21158231    -0.47600
C253        C  0.14002144  0.83437621  0.17897911     0.74000
O254        O  0.21830261  0.95828336  0.12643937    -0.59400
O255        O  0.17064940  0.82305947  0.14776439    -0.49500
O256        O  0.16797765  0.92396132  0.08649143    -0.55900
C257        C  0.27071555  0.86512388  0.07461942     0.84200
O258        O  0.24321010  0.85740962  0.21584075    -0.57800
O259        O  0.14198969  0.87449158  0.19145770    -0.61100
In260      In  0.32714413  0.89653538  0.37288799     1.36900
C261        C  0.35091480  0.96349627  0.43147613     0.76600
O262        O  0.25938711  0.90557381  0.40033135    -0.61800
O263        O  0.29710761  0.86343850  0.45041013    -0.52700
C264        C  0.28060649  0.89591884  0.28361461     0.69300
O265        O  0.30241058  0.92955441  0.29616129    -0.47600
C266        C  0.39315751  0.84305600  0.33905270     0.74000
O267        O  0.32925810  0.96953492  0.38875065    -0.59400
O268        O  0.36154611  0.83206538  0.36959672    -0.49500
O269        O  0.36495729  0.92483055  0.43908211    -0.55900
C270        C  0.26070716  0.88174799  0.44251399     0.84200
O271        O  0.28453628  0.86292097  0.31519813    -0.57800
O272        O  0.39310907  0.88380572  0.32686980    -0.61100
C273        C  0.07676797  0.73149822  0.16785603     0.85500
C274        C  0.11549820  0.75878691  0.18540656    -0.54700
C275        C  0.10593990  0.80144996  0.19806960     0.08500
C276        C  0.05537506  0.81019142  0.20059090     0.19400
C277        C  0.04693237  0.73141582  0.21701447    -0.55400
C278        C  0.03192818  0.77170509  0.23344837     0.08600
C279        C  0.05484040  0.76092804  0.12474559    -0.54900
C280        C  0.04236654  0.80128444  0.14231209     0.09100
H281        H  0.14862761  0.74864096  0.17807733     0.13700
H282        H  0.04643489  0.84366237  0.21405284    -0.00600
H283        H  0.03786456  0.70009692  0.23521991     0.14000
H284        H  0.04490322  0.74880075  0.08560324     0.13800
C285        C  0.45150122  0.73547777  0.34590155     0.85500
C286        C  0.41421025  0.76656182  0.33525849    -0.54700
C287        C  0.42555583  0.80857377  0.32043944     0.08500
C288        C  0.47626291  0.81300675  0.30806255     0.19400
C289        C  0.47405744  0.73428661  0.29045436    -0.55400
C290        C  0.49170215  0.77362393  0.27169880     0.08600
C291        C  0.98320341  0.75991427  0.38199492    -0.54900
C292        C  0.99660450  0.79962934  0.36203155     0.09100
H293        H  0.38121095  0.75708558  0.34589414     0.13700
H294        H  0.48664724  0.84594529  0.29247725    -0.00600
H295        H  0.47680205  0.70428855  0.26861972     0.14000
H296        H  0.99680837  0.74519861  0.41872540     0.13800
C297        C  0.24284067  0.13083553  0.08100298    -0.10100
C298        C  0.20321204  0.10883993  0.08526549     0.06100
C299        C  0.17124241  0.12406426  0.12103183    -0.03900
C300        C  0.17649139  0.16439659  0.14551050    -0.08300
C301        C  0.21367271  0.19026894  0.13550977     0.05200
C302        C  0.24895778  0.17060780  0.10738908    -0.03300
Br303      Br  0.30667097  0.19468242  0.10474909    -0.03000
H304        H  0.26848445  0.11789595  0.05566554     0.09100
H305        H  0.15137379  0.17450852  0.17321199     0.07100
Br306      Br  0.11986918  0.09063010  0.13826567    -0.03500
C307        C  0.32016129  0.11179167  0.40817898    -0.10100
C308        C  0.34031837  0.11621822  0.45852293     0.06100
C309        C  0.35111358  0.15900482  0.47531508    -0.03900
C310        C  0.34561653  0.19489360  0.43991501    -0.08300
C311        C  0.32671167  0.19087216  0.38838212     0.05200
C312        C  0.31120540  0.14836579  0.37438260    -0.03300
Br313      Br  0.27210774  0.13562444  0.31645283    -0.03000
H314        H  0.31032372  0.07954929  0.39508717     0.09100
H315        H  0.35449500  0.22715955  0.45411392     0.07100
Br316      Br  0.36894501  0.17283620  0.54761821    -0.03500
C317        C  0.41376358  0.65475669  0.45840178    -0.10100
C318        C  0.42771080  0.61370834  0.43968800     0.06100
C319        C  0.44659684  0.61220226  0.38749086    -0.03900
C320        C  0.45201767  0.65092922  0.35621855    -0.08300
C321        C  0.43864937  0.69226818  0.37523521     0.05200
C322        C  0.41843255  0.69331880  0.42714274    -0.03300
Br323      Br  0.89860716  0.74654854  0.46069694    -0.03000
H324        H  0.39957943  0.65722739  0.49849985     0.09100
H325        H  0.46794106  0.64775728  0.31762987     0.07100
Br326      Br  0.46458054  0.55894310  0.35419928    -0.03500
C327        C  0.05698275  0.62153184  0.09714892    -0.10100
C328        C  0.09885887  0.60426719  0.09260805     0.06100
C329        C  0.13283314  0.62510385  0.12061763    -0.03900
C330        C  0.12536211  0.66505854  0.14632125    -0.08300
C331        C  0.08408615  0.68486154  0.14647312     0.05200
C332        C  0.04910319  0.66045250  0.12473042    -0.03300
Br333      Br  0.48927715  0.67807027  0.12956031    -0.03000
H334        H  0.03011867  0.60565478  0.07746815     0.09100
H335        H  0.15237537  0.67977312  0.16660632     0.07100
Br336      Br  0.18978520  0.60001923  0.12870066    -0.03500
C337        C  0.25628260  0.53435810  0.56788186    -0.10100
C338        C  0.25743256  0.53613880  0.62453284     0.06100
C339        C  0.29214013  0.51520886  0.65093395    -0.03900
C340        C  0.33105301  0.51031899  0.62290178    -0.08300
C341        C  0.33397346  0.52315097  0.56781460     0.05200
C342        C  0.29466444  0.52861635  0.53893816    -0.03300
Br343      Br  0.29103943  0.53228268  0.46114217    -0.03000
H344        H  0.22761785  0.54538526  0.54630411     0.09100
H345        H  0.35817027  0.49583375  0.64422873     0.07100
Br346      Br  0.28611641  0.48667982  0.72038943    -0.03500
C347        C  0.22423539  0.52831745  0.98277036    -0.10100
C348        C  0.18584777  0.52189894  0.95352588     0.06100
C349        C  0.18946042  0.51466587  0.89709611    -0.03900
C350        C  0.22672254  0.52909124  0.87005983    -0.08300
C351        C  0.26066398  0.54736765  0.89929343     0.05200
C352        C  0.26194191  0.54094358  0.95574154    -0.03300
Br353      Br  0.31253382  0.55380100  0.99738333    -0.03000
H354        H  0.22374781  0.52807552  0.02670176     0.09100
H355        H  0.22735207  0.52962420  0.82620834     0.07100
Br356      Br  0.14853855  0.48209944  0.85518935    -0.03500
C357        C  0.16896675  0.33656188  0.40400334    -0.10100
C358        C  0.17691998  0.36683199  0.44538198     0.06100
C359        C  0.22052775  0.37953275  0.45513284    -0.03900
C360        C  0.25365848  0.36204770  0.42305097    -0.08300
C361        C  0.24444225  0.33013451  0.38482238     0.05200
C362        C  0.20181610  0.31745412  0.37535261    -0.03300
Br363      Br  0.18607354  0.26800335  0.33252098    -0.03000
H364        H  0.13682703  0.32329892  0.39778061     0.09100
H365        H  0.28716700  0.36988503  0.43173547     0.07100
Br366      Br  0.24020079  0.41297891  0.51531320    -0.03500
C367        C  0.30834010  0.35982905  0.03451738    -0.10100
C368        C  0.34568731  0.36771025  0.06523341     0.06100
C369        C  0.34004506  0.37812684  0.12049516    -0.03900
C370        C  0.30208369  0.36485741  0.14675566    -0.08300
C371        C  0.26879712  0.34562677  0.11720134     0.05200
C372        C  0.26936187  0.34989349  0.06040116    -0.03300
Br373      Br  0.21892376  0.33954283  0.01730015    -0.03000
H374        H  0.31010063  0.35867832  0.99069952     0.09100
H375        H  0.30036084  0.36646018  0.19047994     0.07100
Br376      Br  0.37918883  0.41389632  0.16096358    -0.03500
C377        C  0.07400638  0.09160640  0.87619481    -0.10100
C378        C  0.03452769  0.07209045  0.89017386     0.06100
C379        C  0.03243744  0.03818847  0.92922245    -0.03900
C380        C  0.07018969  0.02482481  0.95538928    -0.08300
C381        C  0.10991272  0.04643273  0.94447036     0.05200
C382        C  0.11122517  0.08056492  0.90403579    -0.03300
Br383      Br  0.16031218  0.11837857  0.88837643    -0.03000
H384        H  0.07513185  0.11881279  0.84702340     0.09100
H385        H  0.06684556  0.00006449  0.98708772     0.07100
Br386      Br  0.97820293  0.01270823  0.95178043    -0.03500
C387        C  0.41773735  0.23554302  0.86993569    -0.10100
C388        C  0.45721434  0.21274056  0.87682660     0.06100
C389        C  0.49140335  0.23519090  0.90309472    -0.03900
C390        C  0.48297743  0.27433288  0.93026567    -0.08300
C391        C  0.44188096  0.29382032  0.92861820     0.05200
C392        C  0.41023144  0.27585922  0.89455549    -0.03300
Br393      Br  0.35717562  0.30623199  0.87730337    -0.03000
H394        H  0.39261682  0.22309933  0.84418730     0.09100
H395        H  0.00845000  0.28888230  0.95396735     0.07100
Br396      Br  0.05077528  0.21562801  0.90258995    -0.03500
C397        C  0.47463438  0.01641312  0.56591305    -0.10100
C398        C  0.43350249  0.02897108  0.58586073     0.06100
C399        C  0.43117283  0.05190922  0.63554995    -0.03900
C400        C  0.46861797  0.06042219  0.66355087    -0.08300
C401        C  0.50878483  0.05322889  0.63966404     0.05200
C402        C  0.51223627  0.02958433  0.59190644    -0.03300
Br403      Br  0.06745656  0.02123685  0.55733650    -0.03000
H404        H  0.47836353  0.00109959  0.52707737     0.09100
H405        H  0.46619457  0.08022724  0.69930606     0.07100
Br406      Br  0.38100939  0.08243223  0.66344385    -0.03500
C407        C  0.09784821  0.28204300  0.62407750    -0.10100
C408        C  0.07897720  0.28998142  0.57349505     0.06100
C409        C  0.05701446  0.25570876  0.54816794    -0.03900
C410        C  0.05484871  0.21393344  0.57302873    -0.08300
C411        C  0.07444937  0.20494826  0.62373816     0.05200
C412        C  0.09556838  0.24044578  0.64947780    -0.03300
Br413      Br  0.12232882  0.23505464  0.71955547    -0.03000
H414        H  0.11578675  0.30810211  0.64316064     0.09100
H415        H  0.03752083  0.18915955  0.55143992     0.07100
Br416      Br  0.03105856  0.26378307  0.47818185    -0.03500
C417        C  0.19624419  0.77881322  0.62900900    -0.10100
C418        C  0.20684247  0.78504118  0.57423838     0.06100
C419        C  0.22232502  0.74908554  0.54486490    -0.03900
C420        C  0.22628562  0.70744346  0.56988332    -0.08300
C421        C  0.21463509  0.70012981  0.62482111     0.05200
C422        C  0.19977084  0.73716388  0.65437727    -0.03300
Br423      Br  0.18159630  0.73355068  0.72918419    -0.03000
H424        H  0.18277758  0.80597242  0.65140372     0.09100
H425        H  0.23706519  0.68109458  0.54471566     0.07100
Br426      Br  0.23538864  0.75485307  0.46876319    -0.03500
C427        C  0.10825000  0.81262742  0.41593375    -0.10100
C428        C  0.10465785  0.85259448  0.44357885     0.06100
C429        C  0.06823699  0.87984079  0.43236447    -0.03900
C430        C  0.03336576  0.86262528  0.40365807    -0.08300
C431        C  0.03542481  0.82004582  0.38354230     0.05200
C432        C  0.07422526  0.79598600  0.38691609    -0.03300
Br433      Br  0.08302644  0.73955821  0.35453358    -0.03000
H434        H  0.13753967  0.79297518  0.41882887     0.09100
H435        H  0.00444661  0.88232293  0.39734432     0.07100
Br436      Br  0.06557819  0.94178615  0.44480925    -0.03500
C437        C  0.34603007  0.73285571  0.86272121    -0.10100
C438        C  0.31126562  0.70559939  0.87965989     0.06100
C439        C  0.27825591  0.72489083  0.91197294    -0.03900
C440        C  0.28590917  0.76538076  0.93646323    -0.08300
C441        C  0.32445055  0.78837757  0.92610014     0.05200
C442        C  0.35284343  0.77361982  0.88566670    -0.03300
Br443      Br  0.40207456  0.80762157  0.86132912    -0.03000
H444        H  0.36861463  0.72258298  0.83176021     0.09100
H445        H  0.26262278  0.77795206  0.96534606     0.07100
Br446      Br  0.22152226  0.69986219  0.92249321    -0.03500
C447        C  0.46751632  0.86796179  0.05399877    -0.10100
C448        C  0.42881185  0.84340916  0.06085833     0.06100
C449        C  0.42840346  0.80718432  0.09826798    -0.03900
C450        C  0.46499327  0.79738344  0.12796429    -0.08300
C451        C  0.50345573  0.82044644  0.11886960     0.05200
C452        C  0.50491749  0.85611698  0.08224581    -0.03300
Br453      Br  0.05776672  0.88762699  0.06766798    -0.03000
H454        H  0.47025967  0.89506086  0.02547260     0.09100
H455        H  0.46421382  0.76950799  0.15607278     0.07100
Br456      Br  0.38059384  0.76695001  0.10953108    -0.03500
C457        C  0.88838977  0.85381622  0.02861183     0.85500
C458        C  0.88770905  0.89511535  0.99185543    -0.54700
C459        C  0.84999334  0.90086343  0.96417170     0.08500
C460        C  0.81506217  0.86493324  0.97725720     0.19400
C461        C  0.84927578  0.85942854  0.06567923    -0.55400
C462        C  0.81048586  0.86314416  0.04021391     0.08600
C463        C  0.87694083  0.81633047  0.99110594    -0.54900
C464        C  0.83898358  0.82198092  0.96395907     0.09100
H465        H  0.91403909  0.91831463  0.98703229     0.13700
H466        H  0.78398551  0.86955598  0.95539508    -0.00600
H467        H  0.85230104  0.85927405  0.10956569     0.14000
H468        H  0.89731725  0.78741117  0.98644800     0.13800
C469        C  0.64230251  0.86232649  0.48088834     0.85500
C470        C  0.64074300  0.89979312  0.52150404    -0.54700
C471        C  0.67780200  0.90367113  0.55104693     0.08500
C472        C  0.71374680  0.86927336  0.53697479     0.19400
C473        C  0.68274348  0.87111185  0.44662582    -0.55400
C474        C  0.72031425  0.87407202  0.47454821     0.08600
C475        C  0.65306308  0.82175679  0.51673600    -0.54900
C476        C  0.69054944  0.82458091  0.54483473     0.09100
H477        H  0.61280569  0.92012516  0.52954138     0.13700
H478        H  0.74413103  0.87234299  0.56046025    -0.00600
H479        H  0.68168534  0.87359029  0.40257658     0.14000
H480        H  0.63334539  0.79207109  0.51816474     0.13800
In481      In  0.70680932  0.00734588  0.64831839     1.36900
C482        C  0.68272527  0.93955049  0.59003317     0.76600
O483        O  0.64203789  0.02383550  0.69247167    -0.61800
O484        O  0.67587701  0.07472826  0.65076900    -0.52700
C485        C  0.75387475  0.00669541  0.73729657     0.69300
O486        O  0.72891373  0.97492029  0.72673716    -0.47600
C487        C  0.77459522  0.01609530  0.58111686     0.74000
O488        O  0.70020698  0.93429885  0.63582684    -0.59400
O489        O  0.74098060  0.03950698  0.57379384    -0.49500
O490        O  0.67135422  0.97864253  0.57860544    -0.55900
C491        C  0.64350052  0.06459441  0.68038139     0.84200
O492        O  0.75278586  0.03879404  0.70401235    -0.57800
O493        O  0.77239001  0.99007331  0.62128910    -0.61100
In494      In  0.82964219  0.01365018  0.87323340     1.36900
C495        C  0.84528165  0.93889846  0.92633572     0.76600
O496        O  0.89404187  0.02650490  0.82518366    -0.61800
O497        O  0.86780939  0.07636737  0.87371839    -0.52700
C498        C  0.78218248  0.00763165  0.78451280     0.69300
O499        O  0.79730641  0.97370202  0.80825526    -0.47600
C500        C  0.76848049  0.03436685  0.94473712     0.74000
O501        O  0.81575331  0.94185076  0.89136366    -0.59400
O502        O  0.80456245  0.02072320  0.96138576    -0.49500
O503        O  0.87002889  0.97209620  0.92827960    -0.55900
C504        C  0.89680756  0.06611471  0.83966776     0.84200
O505        O  0.79342418  0.04362648  0.80432696    -0.57800
O506        O  0.76829443  0.04559584  0.89544196    -0.61100
C507        C  0.56994309  0.15980188  0.65289346     0.85500
C508        C  0.54645075  0.12261035  0.62325173    -0.54700
C509        C  0.54190705  0.08462054  0.65366327     0.08500
C510        C  0.56103477  0.08649604  0.71022856     0.19400
C511        C  0.54341288  0.16455192  0.70430134    -0.55400
C512        C  0.53693814  0.12723177  0.73530680     0.08600
C513        C  0.61293716  0.13864937  0.66989414    -0.54900
C514        C  0.60940501  0.09830992  0.69568301     0.09100
H515        H  0.53110907  0.12573373  0.58404432     0.13700
H516        H  0.55705899  0.05549103  0.73447181    -0.00600
H517        H  0.52701926  0.19549544  0.71096774     0.14000
H518        H  0.64334283  0.15068955  0.65269842     0.13800
C519        C  0.96362245  0.16664098  0.85350372     0.85500
C520        C  0.48576373  0.13413668  0.89298545    -0.54700
C521        C  0.49590978  0.09448047  0.87100135     0.08500
C522        C  0.98006755  0.08927963  0.81303364     0.19400
C523        C  0.99281121  0.16823129  0.80382750    -0.55400
C524        C  0.00303834  0.12855623  0.78141808     0.08600
C525        C  0.92306322  0.14156883  0.83622225    -0.54900
C526        C  0.93037350  0.09934714  0.81994359     0.09100
H527        H  0.49718379  0.14332314  0.93270826     0.13700
H528        H  0.98706054  0.05638685  0.79622812    -0.00600
H529        H  0.00696514  0.19943102  0.79124100     0.14000
H530        H  0.89083989  0.15208313  0.84808660     0.13800
C531        C  0.88912028  0.36611528  0.03681309     0.85500
C532        C  0.92899368  0.35887107  0.07223047    -0.54700
C533        C  0.96764273  0.36011819  0.04508400     0.08500
C534        C  0.96223871  0.36722815  0.98260584     0.19400
C535        C  0.89669162  0.40840062  0.00477668    -0.55400
C536        C  0.93380009  0.40925411  0.97518458     0.08600
C537        C  0.89338346  0.32907167  0.99578534    -0.54900
C538        C  0.93123548  0.32963849  0.96654448     0.09100
H539        H  0.92708023  0.35138350  0.11529110     0.13700
H540        H  0.99324153  0.36841338  0.95949611    -0.00600
H541        H  0.87309607  0.43504438  0.00373901     0.14000
H542        H  0.86937850  0.30316008  0.99237896     0.13800
C543        C  0.63803206  0.37370134  0.48208901     0.85500
C544        C  0.59748784  0.38262063  0.44828656    -0.54700
C545        C  0.55947161  0.38024076  0.47584452     0.08500
C546        C  0.56538359  0.37316535  0.53778189     0.19400
C547        C  0.63592487  0.40991430  0.52382769    -0.55400
C548        C  0.59842462  0.40956389  0.55378797     0.08600
C549        C  0.62915609  0.33078787  0.51411235    -0.54900
C550        C  0.59151449  0.33013878  0.54269078     0.09100
H551        H  0.59885576  0.38877303  0.40467466     0.13700
H552        H  0.53452871  0.37299851  0.56123717    -0.00600
H553        H  0.65913341  0.43631107  0.52675642     0.14000
H554        H  0.65079363  0.30249901  0.51327986     0.13800
In555      In  0.56641375  0.51546223  0.64627755     1.36900
C556        C  0.58937058  0.44565159  0.59099760     0.76600
O557        O  0.49599162  0.51729782  0.62884206    -0.61800
O558        O  0.53535061  0.54071451  0.56457081    -0.52700
C559        C  0.52685405  0.51278983  0.74062049     0.69300
O560        O  0.54563002  0.47889050  0.72259851    -0.47600
C561        C  0.63504492  0.56610830  0.67836444     0.74000
O562        O  0.56343781  0.44246801  0.63060602    -0.59400
O563        O  0.60339310  0.58008567  0.65007203    -0.49500
O564        O  0.60655047  0.48308227  0.58402073    -0.55900
C565        C  0.49739416  0.53065237  0.58039504     0.84200
O566        O  0.52981691  0.54722635  0.71121820    -0.57800
O567        O  0.63261294  0.52524437  0.68898457    -0.61100
In568      In  0.95876931  0.52010406  0.88249728     1.36900
C569        C  0.94170392  0.44730671  0.93841240     0.76600
O570        O  0.52338879  0.54871439  0.90118172    -0.61800
O571        O  0.98663557  0.52851353  0.96923606    -0.52700
C572        C  0.00268997  0.51359419  0.79145708     0.69300
O573        O  0.98561377  0.47996877  0.81412640    -0.47600
C574        C  0.88825217  0.56738712  0.84603988     0.74000
O575        O  0.96782685  0.44704701  0.89875289    -0.59400
O576        O  0.91694888  0.58145608  0.87794951    -0.49500
O577        O  0.92188677  0.48333669  0.94502897    -0.55900
C578        C  0.52340175  0.53936970  0.95109921     0.84200
O579        O  0.99666921  0.54946042  0.81510458    -0.57800
O580        O  0.89369782  0.52734876  0.83515779    -0.61100
C581        C  0.80871717  0.65885639  0.85782916     0.85500
C582        C  0.85271999  0.63886151  0.84226369    -0.54700
C583        C  0.85150178  0.59650375  0.82504895     0.08500
C584        C  0.80361891  0.58086729  0.81524074     0.19400
C585        C  0.78118182  0.65776106  0.80774021    -0.55400
C586        C  0.77716240  0.61792546  0.78325703     0.08600
C587        C  0.78889751  0.62355729  0.89579278    -0.54900
C588        C  0.78553909  0.58287975  0.87307405     0.09100
H589        H  0.88274807  0.65315493  0.85635135     0.13700
H590        H  0.80158664  0.54795906  0.79752407    -0.00600
H591        H  0.76357232  0.68717375  0.79526291     0.14000
H592        H  0.77752469  0.63014442  0.93647623     0.13800
C593        C  0.71731839  0.65396396  0.65222085     0.85500
C594        C  0.67284362  0.63678533  0.67065669    -0.54700
C595        C  0.67265147  0.59558506  0.69418719     0.08500
C596        C  0.71990585  0.57861207  0.70660803     0.19400
C597        C  0.74561567  0.65453149  0.70177599    -0.55400
C598        C  0.74790207  0.61659759  0.73261804     0.08600
C599        C  0.73688538  0.61555329  0.62040099    -0.54900
C600        C  0.73808474  0.57582937  0.64871477     0.09100
H601        H  0.64345121  0.65240337  0.65555399     0.13700
H602        H  0.72004986  0.54729902  0.73029266    -0.00600
H603        H  0.76524364  0.68340858  0.70900770     0.14000
H604        H  0.75035776  0.61893684  0.58000714     0.13800
C605        C  0.64354631  0.52592492  0.98439217     0.85500
C606        C  0.63575597  0.48524929  0.01957666    -0.54700
C607        C  0.60000873  0.48711519  0.05167198     0.08500
C608        C  0.57310845  0.53005284  0.04364318     0.19400
C609        C  0.60244846  0.53351140  0.95159344    -0.55400
C610        C  0.56510091  0.53528550  0.98130781     0.08600
C611        C  0.64259974  0.56482327  0.02316094    -0.54900
C612        C  0.60645042  0.56688989  0.05547560     0.09100
H613        H  0.65815087  0.45756638  0.02041631     0.13700
H614        H  0.54314943  0.53077417  0.06876118    -0.00600
H615        H  0.60261921  0.54004724  0.90837247     0.14000
H616        H  0.66737993  0.59015015  0.02211757     0.13800
C617        C  0.87741468  0.52825434  0.53957142     0.85500
C618        C  0.88490376  0.49046201  0.50210691    -0.54700
C619        C  0.92177129  0.49336978  0.47248870     0.08500
C620        C  0.95035539  0.53427750  0.48516960     0.19400
C621        C  0.91778985  0.52968672  0.57543165    -0.55400
C622        C  0.95636419  0.53265276  0.54801996     0.08600
C623        C  0.88142898  0.57020009  0.50422238    -0.54900
C624        C  0.91920190  0.57381564  0.47491094     0.09100
H625        H  0.86189188  0.46357390  0.49836291     0.13700
H626        H  0.98156233  0.53593306  0.46269222    -0.00600
H627        H  0.91652297  0.52949414  0.61932436     0.14000
H628        H  0.85596337  0.59490289  0.50238039     0.13800
In629      In  0.57187600  0.37850618  0.14730777     1.36900
C630        C  0.59150736  0.45038797  0.09042360     0.76600
O631        O  0.63730387  0.36903009  0.19421515    -0.61800
O632        O  0.61234952  0.31673099  0.14961381    -0.52700
C633        C  0.52565195  0.38658404  0.23676930     0.69300
O634        O  0.54213075  0.41984522  0.21265652    -0.47600
C635        C  0.50832635  0.35819949  0.07742821     0.74000
O636        O  0.56456329  0.45179415  0.12914517    -0.59400
O637        O  0.54529964  0.36929540  0.06035467    -0.49500
O638        O  0.61103562  0.41402072  0.08590290    -0.55900
C639        C  0.64211168  0.32940350  0.18084993     0.84200
O640        O  0.53454139  0.34994130  0.21643123    -0.57800
O641        O  0.50724386  0.34994736  0.12755936    -0.61100
In642      In  0.95329201  0.39170444  0.37541305     1.36900
C643        C  0.93051502  0.45819096  0.43416795     0.76600
O644        O  0.88595008  0.37936582  0.33633806    -0.61800
O645        O  0.92077294  0.32658334  0.37286560    -0.52700
C646        C  0.99842463  0.38913923  0.28510663     0.69300
O647        O  0.97609878  0.42273321  0.29684515    -0.47600
C648        C  0.51938512  0.38354809  0.44366328     0.74000
O649        O  0.94808342  0.46420365  0.38825514    -0.59400
O650        O  0.98510281  0.36131387  0.45170812    -0.49500
O651        O  0.91937153  0.41899489  0.44539942    -0.55900
C652        C  0.88728048  0.33835468  0.34680784     0.84200
O653        O  0.99587400  0.35698041  0.31828619    -0.57800
O654        O  0.51917562  0.40725507  0.40126980    -0.61100
C655        C  0.81952933  0.23452259  0.35679759     0.85500
C656        C  0.78621679  0.26215454  0.38716338    -0.54700
C657        C  0.77909106  0.30275379  0.36481689     0.08500
C658        C  0.80478249  0.31304146  0.31336044     0.19400
C659        C  0.80429692  0.23429504  0.29827183    -0.55400
C660        C  0.79084057  0.27416691  0.27613416     0.08600
C661        C  0.85973292  0.26320769  0.35258616    -0.54900
C662        C  0.85309917  0.30506739  0.33278481     0.09100
H663        H  0.76857632  0.25006016  0.42279657     0.13700
H664        H  0.79832062  0.34638350  0.29584913    -0.00600
H665        H  0.80815733  0.20531376  0.27483883     0.14000
H666        H  0.89050508  0.25219583  0.36926087     0.13800
C667        C  0.71711351  0.23594270  0.15973216     0.85500
C668        C  0.73657221  0.27104528  0.12120380    -0.54700
C669        C  0.74276427  0.31121678  0.14424116     0.08500
C670        C  0.72831170  0.31262514  0.20369282     0.19400
C671        C  0.74636830  0.23450350  0.20803233    -0.55400
C672        C  0.75570955  0.27377723  0.23133966     0.08600
C673        C  0.67505412  0.25705800  0.17965821    -0.54900
C674        C  0.67909993  0.29895198  0.19799715     0.09100
H675        H  0.74669798  0.26388107  0.08013525     0.13700
H676        H  0.73275823  0.34495211  0.22297861    -0.00600
H677        H  0.75941333  0.20292855  0.22022035     0.14000
H678        H  0.64367077  0.24442618  0.16808600     0.13800
C679        C  0.89449785  0.02746938  0.54942517     0.85500
C680        C  0.85307458  0.01565325  0.58013897    -0.54700
C681        C  0.81613386  0.02067830  0.55128835     0.08500
C682        C  0.82450695  0.03236601  0.49070366     0.19400
C683        C  0.89465143  0.99518022  0.50298035    -0.55400
C684        C  0.85840546  0.99753402  0.47173455     0.08600
C685        C  0.88723306  0.07243384  0.52190465    -0.54900
C686        C  0.85053058  0.07587244  0.49162206     0.09100
H687        H  0.85296071  0.00472026  0.62238305     0.13700
H688        H  0.79431405  0.03354650  0.46654716    -0.00600
H689        H  0.91950251  0.97045610  0.49685598     0.14000
H690        H  0.91153117  0.09814170  0.52330727     0.13800
C691        C  0.64893120  0.03823682  0.97978886     0.85500
C692        C  0.69008007  0.03279897  0.94672724    -0.54700
C693        C  0.72730265  0.03266313  0.97575164     0.08500
C694        C  0.71936265  0.03233458  0.03801048     0.19400
C695        C  0.64927137  0.99817116  0.01861907    -0.55400
C696        C  0.68555615  0.99521990  0.04974135     0.08600
C697        C  0.65666449  0.07758148  0.01583783    -0.54900
C698        C  0.69279084  0.07428998  0.04695405     0.09100
H699        H  0.68968698  0.03062972  0.90279495     0.13700
H700        H  0.74929239  0.02997486  0.06266884    -0.00600
H701        H  0.62403142  0.97347076  0.02150960     0.14000
H702        H  0.63499892  0.10582115  0.01690429     0.13800
In703      In  0.70783893  0.88624775  0.14559681     1.36900
C704        C  0.69052859  0.95856939  0.08919729     0.76600
O705        O  0.77337301  0.86154017  0.12528564    -0.61800
O706        O  0.73283496  0.87271036  0.05830418    -0.52700
C707        C  0.75285099  0.89388779  0.23588648     0.69300
O708        O  0.73710553  0.92732077  0.21158230    -0.47600
C709        C  0.64002146  0.83437611  0.17897911     0.74000
O710        O  0.71830252  0.95828335  0.12643940    -0.59400
O711        O  0.67064935  0.82305942  0.14776428    -0.49500
O712        O  0.66797757  0.92396132  0.08649145    -0.55900
C713        C  0.77071557  0.86512387  0.07461940     0.84200
O714        O  0.74321014  0.85740963  0.21584076    -0.57800
O715        O  0.64198979  0.87449146  0.19145781    -0.61100
In716      In  0.82714414  0.89653537  0.37288801     1.36900
C717        C  0.85091484  0.96349626  0.43147611     0.76600
O718        O  0.75938706  0.90557382  0.40033131    -0.61800
O719        O  0.79710756  0.86343851  0.45041009    -0.52700
C720        C  0.78060649  0.89591886  0.28361465     0.69300
O721        O  0.80241061  0.92955440  0.29616128    -0.47600
C722        C  0.89315745  0.84305598  0.33905267     0.74000
O723        O  0.82925819  0.96953491  0.38875062    -0.59400
O724        O  0.86154611  0.83206536  0.36959681    -0.49500
O725        O  0.86495738  0.92483055  0.43908209    -0.55900
C726        C  0.76070712  0.88174800  0.44251395     0.84200
O727        O  0.78453633  0.86292097  0.31519814    -0.57800
O728        O  0.89310897  0.88380568  0.32686971    -0.61100
C729        C  0.57676783  0.73149821  0.16785592     0.85500
C730        C  0.61549813  0.75878684  0.18540649    -0.54700
C731        C  0.60593985  0.80144990  0.19806961     0.08500
C732        C  0.55537505  0.81019141  0.20059088     0.19400
C733        C  0.54693225  0.73141582  0.21701435    -0.55400
C734        C  0.53192810  0.77170508  0.23344831     0.08600
C735        C  0.55484032  0.76092809  0.12474552    -0.54900
C736        C  0.54236653  0.80128450  0.14231204     0.09100
H737        H  0.64862734  0.74864093  0.17807730     0.13700
H738        H  0.54643495  0.84366238  0.21405286    -0.00600
H739        H  0.53786442  0.70009688  0.23521985     0.14000
H740        H  0.54490305  0.74880083  0.08560314     0.13800
C741        C  0.95150126  0.73547775  0.34590155     0.85500
C742        C  0.91421026  0.76656178  0.33525850    -0.54700
C743        C  0.92555578  0.80857373  0.32043940     0.08500
C744        C  0.97626286  0.81300676  0.30806253     0.19400
C745        C  0.97405751  0.73428661  0.29045437    -0.55400
C746        C  0.99170219  0.77362393  0.27169882     0.08600
C747        C  0.48320340  0.75991427  0.38199492    -0.54900
C748        C  0.49660457  0.79962930  0.36203153     0.09100
H749        H  0.88121099  0.75708551  0.34589416     0.13700
H750        H  0.98664710  0.84594531  0.29247726    -0.00600
H751        H  0.97680213  0.70428854  0.26861970     0.14000
H752        H  0.49680829  0.74519863  0.41872544     0.13800
C753        C  0.74284063  0.13083553  0.08100292    -0.10100
C754        C  0.70321203  0.10883991  0.08526549     0.06100
C755        C  0.67124242  0.12406425  0.12103185    -0.03900
C756        C  0.67649137  0.16439661  0.14551041    -0.08300
C757        C  0.71367264  0.19026898  0.13550968     0.05200
C758        C  0.74895769  0.17060782  0.10738899    -0.03300
Br759      Br  0.80667082  0.19468243  0.10474907    -0.03000
H760        H  0.76848442  0.11789597  0.05566547     0.09100
H761        H  0.65137364  0.17450859  0.17321207     0.07100
Br762      Br  0.61986925  0.09063008  0.13826569    -0.03500
C763        C  0.82016126  0.11179166  0.40817897    -0.10100
C764        C  0.84031831  0.11621823  0.45852296     0.06100
C765        C  0.85111348  0.15900483  0.47531513    -0.03900
C766        C  0.84561657  0.19489359  0.43991497    -0.08300
C767        C  0.82671164  0.19087215  0.38838211     0.05200
C768        C  0.81120530  0.14836581  0.37438262    -0.03300
Br769      Br  0.77210756  0.13562445  0.31645287    -0.03000
H770        H  0.81032378  0.07954934  0.39508714     0.09100
H771        H  0.85449515  0.22715951  0.45411382     0.07100
Br772      Br  0.86894511  0.17283620  0.54761820    -0.03500
C773        C  0.91376364  0.65475668  0.45840177    -0.10100
C774        C  0.92771086  0.61370832  0.43968800     0.06100
C775        C  0.94659695  0.61220220  0.38749085    -0.03900
C776        C  0.95201776  0.65092918  0.35621857    -0.08300
C777        C  0.93864943  0.69226816  0.37523520     0.05200
C778        C  0.91843251  0.69331878  0.42714270    -0.03300
Br779      Br  0.39860735  0.74654856  0.46069698    -0.03000
H780        H  0.89957952  0.65722738  0.49849985     0.09100
H781        H  0.96794117  0.64775725  0.31762978     0.07100
Br782      Br  0.96458063  0.55894290  0.35419932    -0.03500
C783        C  0.55698269  0.62153183  0.09714892    -0.10100
C784        C  0.59885879  0.60426716  0.09260803     0.06100
C785        C  0.63283309  0.62510377  0.12061764    -0.03900
C786        C  0.62536203  0.66505853  0.14632119    -0.08300
C787        C  0.58408605  0.68486154  0.14647296     0.05200
C788        C  0.54910308  0.66045249  0.12473032    -0.03300
Br789      Br  0.98927725  0.67807028  0.12956032    -0.03000
H790        H  0.53011845  0.60565464  0.07746806     0.09100
H791        H  0.65237517  0.67977302  0.16660627     0.07100
Br792      Br  0.68978519  0.60001899  0.12870066    -0.03500
C793        C  0.75628268  0.53435812  0.56788185    -0.10100
C794        C  0.75743263  0.53613881  0.62453282     0.06100
C795        C  0.79214017  0.51520877  0.65093394    -0.03900
C796        C  0.83105301  0.51031882  0.62290174    -0.08300
C797        C  0.83397351  0.52315090  0.56781462     0.05200
C798        C  0.79466450  0.52861634  0.53893817    -0.03300
Br799      Br  0.79103954  0.53228268  0.46114217    -0.03000
H800        H  0.72761793  0.54538530  0.54630407     0.09100
H801        H  0.85817034  0.49583347  0.64422875     0.07100
Br802      Br  0.78611651  0.48667983  0.72038946    -0.03500
C803        C  0.72423530  0.52831748  0.98277038    -0.10100
C804        C  0.68584770  0.52189897  0.95352586     0.06100
C805        C  0.68946039  0.51466592  0.89709609    -0.03900
C806        C  0.72672255  0.52909124  0.87005987    -0.08300
C807        C  0.76066395  0.54736769  0.89929350     0.05200
C808        C  0.76194185  0.54094363  0.95574160    -0.03300
Br809      Br  0.81253386  0.55380099  0.99738331    -0.03000
H810        H  0.72374768  0.52807552  0.02670178     0.09100
H811        H  0.72735212  0.52962419  0.82620836     0.07100
Br812      Br  0.64853863  0.48209943  0.85518932    -0.03500
C813        C  0.66896670  0.33656186  0.40400334    -0.10100
C814        C  0.67691991  0.36683197  0.44538198     0.06100
C815        C  0.72052768  0.37953276  0.45513284    -0.03900
C816        C  0.75365843  0.36204771  0.42305099    -0.08300
C817        C  0.74444223  0.33013453  0.38482239     0.05200
C818        C  0.70181608  0.31745413  0.37535261    -0.03300
Br819      Br  0.68607362  0.26800335  0.33252097    -0.03000
H820        H  0.63682699  0.32329891  0.39778062     0.09100
H821        H  0.78716700  0.36988505  0.43173553     0.07100
Br822      Br  0.74020063  0.41297892  0.51531321    -0.03500
C823        C  0.80834009  0.35982903  0.03451736    -0.10100
C824        C  0.84568733  0.36771019  0.06523340     0.06100
C825        C  0.84004510  0.37812664  0.12049520    -0.03900
C826        C  0.80208369  0.36485732  0.14675565    -0.08300
C827        C  0.76879709  0.34562679  0.11720131     0.05200
C828        C  0.76936183  0.34989347  0.06040113    -0.03300
Br829      Br  0.71892362  0.33954285  0.01730018    -0.03000
H830        H  0.81010063  0.35867833  0.99069948     0.09100
H831        H  0.80036083  0.36646012  0.19047994     0.07100
Br832      Br  0.87918867  0.41389632  0.16096358    -0.03500
C833        C  0.57400646  0.09160638  0.87619481    -0.10100
C834        C  0.53452775  0.07209042  0.89017385     0.06100
C835        C  0.53243746  0.03818845  0.92922249    -0.03900
C836        C  0.57018975  0.02482479  0.95538927    -0.08300
C837        C  0.60991277  0.04643271  0.94447034     0.05200
C838        C  0.61122525  0.08056491  0.90403578    -0.03300
Br839      Br  0.66031229  0.11837857  0.88837643    -0.03000
H840        H  0.57513196  0.11881279  0.84702340     0.09100
H841        H  0.56684561  0.00006450  0.98708774     0.07100
Br842      Br  0.47820291  0.01270829  0.95178077    -0.03500
C843        C  0.91773734  0.23554304  0.86993574    -0.10100
C844        C  0.95721429  0.21274055  0.87682657     0.06100
C845        C  0.99140332  0.23519089  0.90309473    -0.03900
C846        C  0.98297744  0.27433285  0.93026564    -0.08300
C847        C  0.94188104  0.29382035  0.92861820     0.05200
C848        C  0.91023147  0.27585923  0.89455549    -0.03300
Br849      Br  0.85717571  0.30623201  0.87730336    -0.03000
H850        H  0.89261664  0.22309928  0.84418725     0.09100
H851        H  0.50844986  0.28888229  0.95396730     0.07100
Br852      Br  0.55077537  0.21562803  0.90258995    -0.03500
C853        C  0.97463439  0.01641311  0.56591304    -0.10100
C854        C  0.93350248  0.02897109  0.58586071     0.06100
C855        C  0.93117276  0.05190924  0.63554992    -0.03900
C856        C  0.96861789  0.06042220  0.66355087    -0.08300
C857        C  0.00878478  0.05322889  0.63966406     0.05200
C858        C  0.01223627  0.02958434  0.59190644    -0.03300
Br859      Br  0.56745646  0.02123684  0.55733645    -0.03000
H860        H  0.97836353  0.00109957  0.52707739     0.09100
H861        H  0.96619448  0.08022725  0.69930607     0.07100
Br862      Br  0.88100924  0.08243222  0.66344383    -0.03500
C863        C  0.59784812  0.28204306  0.62407755    -0.10100
C864        C  0.57897707  0.28998145  0.57349510     0.06100
C865        C  0.55701450  0.25570873  0.54816793    -0.03900
C866        C  0.55484882  0.21393339  0.57302871    -0.08300
C867        C  0.57444946  0.20494824  0.62373815     0.05200
C868        C  0.59556843  0.24044578  0.64947779    -0.03300
Br869      Br  0.62232893  0.23505464  0.71955545    -0.03000
H870        H  0.61578655  0.30810213  0.64316063     0.09100
H871        H  0.53752098  0.18915950  0.55143988     0.07100
Br872      Br  0.53105867  0.26378305  0.47818182    -0.03500
C873        C  0.69624406  0.77881320  0.62900897    -0.10100
C874        C  0.70684242  0.78504117  0.57423839     0.06100
C875        C  0.72232502  0.74908555  0.54486492    -0.03900
C876        C  0.72628551  0.70744344  0.56988330    -0.08300
C877        C  0.71463502  0.70012981  0.62482112     0.05200
C878        C  0.69977083  0.73716389  0.65437728    -0.03300
Br879      Br  0.68159641  0.73355069  0.72918423    -0.03000
H880        H  0.68277738  0.80597239  0.65140368     0.09100
H881        H  0.73706504  0.68109463  0.54471568     0.07100
Br882      Br  0.73538875  0.75485308  0.46876322    -0.03500
C883        C  0.60825006  0.81262743  0.41593376    -0.10100
C884        C  0.60465788  0.85259447  0.44357890     0.06100
C885        C  0.56823702  0.87984079  0.43236447    -0.03900
C886        C  0.53336583  0.86262526  0.40365804    -0.08300
C887        C  0.53542487  0.82004580  0.38354230     0.05200
C888        C  0.57422532  0.79598600  0.38691608    -0.03300
Br889      Br  0.58302629  0.73955819  0.35453358    -0.03000
H890        H  0.63753976  0.79297516  0.41882886     0.09100
H891        H  0.50444666  0.88232290  0.39734426     0.07100
Br892      Br  0.56557802  0.94178614  0.44480928    -0.03500
C893        C  0.84603008  0.73285573  0.86272116    -0.10100
C894        C  0.81126561  0.70559943  0.87965989     0.06100
C895        C  0.77825593  0.72489086  0.91197292    -0.03900
C896        C  0.78590918  0.76538079  0.93646326    -0.08300
C897        C  0.82445059  0.78837759  0.92610014     0.05200
C898        C  0.85284344  0.77361984  0.88566671    -0.03300
Br899      Br  0.90207465  0.80762155  0.86132913    -0.03000
H900        H  0.86861449  0.72258305  0.83176028     0.09100
H901        H  0.76262284  0.77795201  0.96534608     0.07100
Br902      Br  0.72152232  0.69986218  0.92249323    -0.03500
C903        C  0.96751637  0.86796187  0.05399893    -0.10100
C904        C  0.92881189  0.84340924  0.06085834     0.06100
C905        C  0.92840344  0.80718434  0.09826798    -0.03900
C906        C  0.96499326  0.79738343  0.12796425    -0.08300
C907        C  0.00345574  0.82044641  0.11886962     0.05200
C908        C  0.00491754  0.85611708  0.08224595    -0.03300
Br909      Br  0.55776656  0.88762702  0.06766794    -0.03000
H910        H  0.97025976  0.89506113  0.02547262     0.09100
H911        H  0.96421376  0.76950792  0.15607272     0.07100
Br912      Br  0.88059370  0.76695006  0.10953107    -0.03500
loop_ 
_geom_bond_atom_site_label_1 
_geom_bond_atom_site_label_2 
_geom_bond_distance 
_geom_bond_site_symmetry_2 
_ccdc_geom_bond_type 
C1            C2   1.531   1_554  S
C1            C7   1.526   1_554  S
C1            C5   1.521       .  S
C1          C448   1.513       .  S
C2            H9   1.080       .  S
C2            C3   1.362       .  D
C3            C4   1.561       .  S
C3           C39   1.476       .  S
C4            C8   1.539       .  S
C4            C6   1.558   1_556  S
C4           H10   1.110       .  S
C5           H11   1.087       .  S
C5            C6   1.359       .  D
C6          C257   1.489       .  S
C7           H12   1.087       .  S
C7            C8   1.362       .  D
C8          C441   1.471       .  S
C13          C14   1.533       .  S
C13          C19   1.538       .  S
C13          C17   1.522       .  S
C13         C428   1.520       .  S
C14          H21   1.079       .  S
C14          C15   1.367       .  D
C15          C16   1.565       .  S
C15          C26   1.478       .  S
C16          C20   1.542       .  S
C16          C18   1.555       .  S
C16          H22   1.110       .  S
C17          H23   1.088       .  S
C17          C18   1.356       .  D
C18         C270   1.487       .  S
C19          H24   1.088       .  S
C19          C20   1.356       .  D
C20         C418   1.478       .  S
In25         O27   2.328       .  S
In25         O28   2.259       .  S
In25         O36   2.213       .  S
In25         O30   2.260   1_545  S
In25         O32   2.256   1_545  S
In25         O33   2.311       .  S
In25         O34   2.238   1_545  S
In25         O37   2.192   1_545  S
C26          O32   1.262       .  A
C26          O34   1.264       .  A
O27          C35   1.267       .  A
O28          C35   1.267       .  A
C29          O36   1.261       .  A
C29          O30   1.268   1_545  A
C29          C42   1.461       .  S
C31         C225   1.478       .  S
C31          O33   1.268       .  A
C31          O37   1.255   1_545  A
C35          C58   1.519       .  S
In38         O40   2.335       .  S
In38         O41   2.240       .  S
In38         O49   2.218       .  S
In38         O43   2.269   1_545  S
In38         O45   2.256   1_545  S
In38         O46   2.317       .  S
In38         O47   2.221   1_545  S
In38         O50   2.197       .  S
C39          O45   1.261       .  A
C39          O47   1.267       .  A
O40          C48   1.265       .  A
O41          C48   1.266       .  A
C42          O49   1.257       .  A
C42          O43   1.264   1_545  A
C44         C237   1.479       .  S
C44          O46   1.256       .  A
C44          O50   1.256       .  A
C48          C70   1.517       .  S
C51          C52   1.543       .  S
C51          C57   1.530       .  S
C51          C55   1.514       .  S
C51         C411   1.540       .  S
C52          H59   1.082       .  S
C52          C53   1.369       .  D
C53          C54   1.521       .  S
C53         C857   1.447       .  S
C54          C58   1.572       .  S
C54          C56   1.578       .  S
C54          H60   1.110       .  S
C55          H61   1.082       .  S
C55          C56   1.367       .  D
C56         C524   1.541       .  S
C57          H62   1.087       .  S
C57          C58   1.372       .  D
C63          C69   1.533       .  S
C63          C67   1.515       .  S
C63         C520   1.534       .  S
C63         C388   1.537       .  S
C64         C519   1.534       .  S
C64          H71   1.086       .  S
C64          C65   1.367       .  D
C65         C522   1.526       .  S
C65         C378   1.448   1_655  S
C66          C70   1.572       .  S
C66          C68   1.576       .  S
C66         C521   1.526       .  S
C66          H72   1.110       .  S
C67          H73   1.082       .  S
C67          C68   1.372       .  D
C68         C512   1.541       .  S
C69          H74   1.084       .  S
C69          C70   1.370       .  D
C75          C76   1.527       .  S
C75          C81   1.535   1_554  S
C75          C79   1.510       .  S
C75         C368   1.509       .  S
C76          H83   1.083       .  S
C76          C77   1.363       .  D
C77          C78   1.562   1_554  S
C77         C635   1.492       .  S
C78          C82   1.550       .  S
C78          C80   1.556       .  S
C78          H84   1.110       .  S
C79          H85   1.088       .  S
C79          C80   1.353   1_554  D
C80         C113   1.472       .  S
C81          H86   1.086       .  S
C81          C82   1.368       .  D
C82         C391   1.485       .  S
C87          C88   1.529       .  S
C87          C93   1.532       .  S
C87          C91   1.524       .  S
C87         C358   1.515       .  S
C88          H95   1.088       .  S
C88          C89   1.353       .  D
C89          C90   1.550       .  S
C89         C192   1.476       .  S
C90          C94   1.537       .  S
C90          C92   1.563       .  S
C90          H96   1.110       .  S
C91          H97   1.079       .  S
C91          C92   1.368       .  D
C92         C100   1.470       .  S
C93          H98   1.088       .  S
C93          C94   1.354       .  D
C94         C408   1.473       .  S
In99        O101   2.218   1_455  S
In99        O102   2.351       .  S
In99        O110   2.194       .  S
In99        O104   2.254       .  S
In99        O106   2.260       .  S
In99        O107   2.275       .  S
In99        O108   2.213       .  S
In99        O111   2.327       .  S
C100        O106   1.261       .  A
C100        O108   1.262       .  A
O101        C109   1.254       .  A
O102        C109   1.267   1_455  A
C103        O110   1.262       .  A
C103        O104   1.268       .  A
C103        C572   1.455       .  S
C105        C139   1.524       .  S
C105        O107   1.271       .  A
C105        O111   1.265       .  A
C109        C622   1.502       .  S
In112       O115   2.331       .  S
In112       O123   2.199       .  S
In112       O117   2.255       .  S
In112       O119   2.263       .  S
In112       O120   2.266       .  S
In112       O121   2.196       .  S
In112       O124   2.337       .  S
In112       O570   2.230       .  S
C113        O119   1.263       .  A
C113        O121   1.266       .  A
O114       In568   2.230   1_455  S
O114        C122   1.257       .  A
O115        C578   1.258       .  A
C116        O123   1.260       .  A
C116        O117   1.266       .  A
C116        C559   1.455       .  S
C118        C127   1.523       .  S
C118        O120   1.269       .  A
C118        O124   1.262       .  A
C122        C154   1.495       .  S
C122        O571   1.258   1_455  A
C125        C126   1.536       .  S
C125        C131   1.532       .  S
C125        C129   1.505       .  S
C125        C438   1.532       .  S
C126        H133   1.086       .  S
C126        C127   1.364       .  D
C127        C128   1.574       .  S
C128        C132   1.531       .  S
C128        C130   1.588       .  S
C128        H134   1.102       .  S
C129        H135   1.085       .  S
C129        C130   1.370       .  D
C130        C142   1.547       .  S
C131        H136   1.084       .  S
C131        C132   1.372       .  D
C132        C351   1.461       .  S
C137        C138   1.531       .  S
C137        C143   1.541       .  S
C137        C141   1.507       .  S
C137        C421   1.545       .  S
C138        H145   1.087       .  S
C138        C139   1.367       .  D
C139        C140   1.575       .  S
C140        C144   1.535       .  S
C140        C142   1.591       .  S
C140        H146   1.105       .  S
C141        H147   1.085       .  S
C141        C142   1.368       .  D
C143        H148   1.080       .  S
C143        C144   1.381       .  D
C144        C338   1.480       .  S
C149        C150   1.512   1_556  S
C149        C155   1.536   1_556  S
C149        C153   1.523       .  S
C149        C348   1.512       .  S
C150        H157   1.087       .  S
C150        C151   1.355       .  D
C151        C152   1.554       .  S
C151        C174   1.475       .  S
C152        C156   1.554       .  S
C152        C154   1.564   1_554  S
C152        H158   1.110       .  S
C153        H159   1.080       .  S
C153        C154   1.363       .  D
C155        H160   1.085       .  S
C155        C156   1.368       .  D
C156        C328   1.492       .  S
C161        C162   1.506       .  S
C161        C167   1.532       .  S
C161        C165   1.534       .  S
C161        C341   1.512       .  S
C162        H169   1.088       .  S
C162        C163   1.349       .  D
C163        C164   1.562       .  S
C163        C187   1.466       .  S
C164        C168   1.555       .  S
C164        C166   1.562       .  S
C164        H170   1.108       .  S
C165        H171   1.083       .  S
C165        C166   1.367       .  D
C166        C565   1.502       .  S
C167        H172   1.086       .  S
C167        C168   1.370       .  D
C168        C318   1.497       .  S
In173       O175   2.348       .  S
In173       O176   2.252       .  S
In173       O184   2.212       .  S
In173       O178   2.255       .  S
In173       O180   2.271       .  S
In173       O181   2.324       .  S
In173       O182   2.195       .  S
In173       O185   2.236       .  S
C174        O180   1.263       .  A
C174        O182   1.264       .  A
O175        C183   1.263       .  A
O176        C183   1.268       .  A
C177        O184   1.260       .  A
C177        O178   1.266       .  A
C177        C646   1.457   1_455  S
C179        C533   1.492   1_455  S
C179        O181   1.257       .  A
C179        O185   1.256       .  A
C183        C218   1.524       .  S
In186       O188   2.330       .  S
In186       O189   2.220       .  S
In186       O197   2.205       .  S
In186       O191   2.245       .  S
In186       O193   2.236       .  S
In186       O194   2.303       .  S
In186       O195   2.191       .  S
In186       O654   2.189       .  S
C187        O193   1.262       .  A
C187        O195   1.263       .  A
O188        C196   1.267       .  A
O189        C196   1.268       .  A
C190        O197   1.262       .  A
C190        O191   1.268       .  A
C190        C633   1.457       .  S
C192        O198   1.256       .  A
C192        O650   1.267   1_455  A
O194        C648   1.267       .  A
C196        C206   1.508       .  S
O198       In642   2.189   1_455  S
C199        C200   1.529       .  S
C199        C205   1.518       .  S
C199        C203   1.522       .  S
C199        C311   1.539       .  S
C200        H207   1.088       .  S
C200        C201   1.357       .  D
C201        C202   1.518       .  S
C201        C361   1.444       .  S
C202        C206   1.585       .  S
C202        C204   1.574       .  S
C202        H208   1.110       .  S
C203        H209   1.070       .  S
C203        C204   1.382       .  D
C204        C216   1.553       .  S
C205        H210   1.087       .  S
C205        C206   1.367       .  D
C211        C212   1.532       .  S
C211        C217   1.530       .  S
C211        C215   1.499       .  S
C211        C301   1.526       .  S
C212        H219   1.085       .  S
C212        C213   1.371       .  D
C213        C214   1.531       .  S
C213        C371   1.464       .  S
C214        C218   1.582       .  S
C214        C216   1.594       .  S
C214        H220   1.109       .  S
C215        H221   1.077       .  S
C215        C216   1.367       .  D
C217        H222   1.084       .  S
C217        C218   1.366       .  D
C223        C224   1.520       .  S
C223        C229   1.528       .  S
C223        C227   1.524   1_545  S
C223        C398   1.508       .  S
C224        H231   1.087       .  S
C224        C225   1.354       .  D
C225        C226   1.548       .  S
C226        C230   1.547       .  S
C226        C228   1.563   1_545  S
C226        H232   1.109       .  S
C227        H233   1.085       .  S
C227        C228   1.363       .  D
C228        C261   1.469       .  S
C229        H234   1.084       .  S
C229        C230   1.363       .  D
C230        C308   1.492       .  S
C235        C236   1.515       .  S
C235        C241   1.525   1_556  S
C235        C239   1.532   1_546  S
C235        C381   1.508       .  S
C236        H243   1.087       .  S
C236        C237   1.357       .  D
C237        C238   1.553   1_556  S
C238        C242   1.533       .  S
C238        C240   1.557   1_545  S
C238        H244   1.111       .  S
C239        H245   1.082       .  S
C239        C240   1.363       .  D
C240        C248   1.471       .  S
C241        H246   1.087       .  S
C241        C242   1.360       .  D
C242        C298   1.465       .  S
In247       O249   2.214       .  S
In247       O250   2.327       .  S
In247       O258   2.217       .  S
In247       O252   2.266       .  S
In247       O254   2.250       .  S
In247       O255   2.236       .  S
In247       O256   2.213       .  S
In247       O259   2.342       .  S
C248        O254   1.260       .  A
C248        O256   1.264       .  A
O249        C257   1.255       .  A
O250        C257   1.258       .  A
C251        O258   1.260       .  A
C251        O252   1.266       .  A
C251        C264   1.463       .  S
C253        C275   1.517       .  S
C253        O255   1.267       .  A
C253        O259   1.265       .  A
In260       O262   2.211       .  S
In260       O263   2.327       .  S
In260       O271   2.211       .  S
In260       O265   2.259       .  S
In260       O267   2.260       .  S
In260       O268   2.229       .  S
In260       O269   2.204       .  S
In260       O272   2.359       .  S
C261        O267   1.262       .  A
C261        O269   1.262       .  A
O262        C270   1.255       .  A
O263        C270   1.267       .  A
C264        O271   1.262       .  A
C264        O265   1.269       .  A
C266        C287   1.523       .  S
C266        O268   1.268       .  A
C266        O272   1.267       .  A
C273        C274   1.525       .  S
C273        C279   1.534       .  S
C273        C277   1.517       .  S
C273        C331   1.538       .  S
C274        H281   1.082       .  S
C274        C275   1.371       .  D
C275        C276   1.583       .  S
C276        C280   1.525       .  S
C276        C278   1.580       .  S
C276        H282   1.110       .  S
C277        H283   1.079       .  S
C277        C278   1.376       .  D
C278        C746   1.555   1_455  S
C279        H284   1.087       .  S
C279        C280   1.363       .  D
C280        C907   1.452       .  S
C285        C286   1.508       .  S
C285        C289   1.531       .  S
C285        C747   1.531       .  S
C285        C321   1.535       .  S
C286        H293   1.087       .  S
C286        C287   1.364       .  D
C287        C288   1.597       .  S
C288        C290   1.582       .  S
C288        C748   1.523       .  S
C288        H294   1.110       .  S
C289        H295   1.072       .  S
C289        C290   1.382       .  D
C290        C734   1.555       .  S
C291        C741   1.531       .  S
C291        H296   1.088       .  S
C291        C292   1.356       .  D
C292        C744   1.523       .  S
C292        C431   1.458   1_655  S
C297        C298   1.396       .  A
C297        C302   1.398       .  A
C297        H304   1.084       .  S
C298        C299   1.404       .  A
C299        C300   1.388       .  A
C299       Br306   1.923       .  S
C300        C301   1.408       .  A
C300        H305   1.078       .  S
C301        C302   1.424       .  A
C302       Br303   1.925       .  S
C307        C308   1.402       .  A
C307        C312   1.402       .  A
C307        H314   1.082       .  S
C308        C309   1.413       .  A
C309        C310   1.392       .  A
C309       Br316   1.926       .  S
C310        C311   1.410       .  A
C310        H315   1.084       .  S
C311        C312   1.427       .  A
C312       Br313   1.922       .  S
C317        C318   1.405       .  A
C317        C322   1.394       .  A
C317        H324   1.083       .  S
C318        C319   1.411       .  A
C319        C320   1.401       .  A
C319       Br326   1.910       .  S
C320        C321   1.410       .  A
C320        H325   1.074       .  S
C321        C322   1.421       .  A
C322       Br779   1.929       .  S
Br323       C778   1.929       .  S
C327        C328   1.398       .  A
C327        C332   1.397       .  A
C327        H334   1.082       .  S
C328        C329   1.417       .  A
C329        C330   1.400       .  A
C329       Br336   1.924       .  S
C330        C331   1.408       .  A
C330        H335   1.077       .  S
C331        C332   1.424       .  A
C332       Br789   1.925   1_455  S
Br333       C788   1.925       .  S
C337        C338   1.400       .  A
C337        C342   1.391       .  A
C337        H344   1.084       .  S
C338        C339   1.402       .  A
C339        C340   1.391       .  A
C339       Br346   1.910       .  S
C340        C341   1.408       .  A
C340        H345   1.079       .  S
C341        C342   1.418       .  A
C342       Br343   1.924       .  S
C347        C348   1.407       .  A
C347        C352   1.387       .  A
C347        H354   1.084   1_556  S
C348        C349   1.418       .  A
C349        C350   1.391       .  A
C349       Br356   1.925       .  S
C350        C351   1.398       .  A
C350        H355   1.082       .  S
C351        C352   1.403       .  A
C352       Br353   1.919       .  S
C357        C358   1.412       .  A
C357        C362   1.368       .  A
C357        H364   1.084       .  S
C358        C359   1.423       .  A
C359        C360   1.400       .  A
C359       Br366   1.920       .  S
C360        C361   1.398       .  A
C360        H365   1.085       .  S
C361        C362   1.393       .  A
C362       Br363   1.920       .  S
C367        C368   1.407       .  A
C367        C372   1.388       .  A
C367        H374   1.083   1_554  S
C368        C369   1.416       .  A
C369        C370   1.390       .  A
C369       Br376   1.924       .  S
C370        C371   1.399       .  A
C370        H375   1.082       .  S
C371        C372   1.404       .  A
C372       Br373   1.921       .  S
C377        C378   1.393       .  A
C377        C382   1.379       .  A
C377        H384   1.084       .  S
C378        C379   1.395       .  A
C379        C380   1.391       .  A
C379       Br386   1.918   1_455  S
C380        C381   1.412       .  A
C380        H385   1.077       .  S
C381        C382   1.423       .  A
C382       Br383   1.933       .  S
C387        C388   1.410       .  A
C387        C392   1.397       .  A
C387        H394   1.079       .  S
C388        C389   1.424       .  A
C389        C390   1.401       .  A
C389       Br852   1.925       .  S
C390        C391   1.399       .  A
C390        H851   1.083       .  S
C391        C392   1.410       .  A
C392       Br393   1.923       .  S
H395        C846   1.083   1_455  S
Br396       C845   1.925   1_455  S
C397        C398   1.413       .  A
C397        C402   1.393       .  A
C397        H404   1.080       .  S
C398        C399   1.425       .  A
C399        C400   1.378       .  A
C399       Br406   1.933       .  S
C400        C401   1.388       .  A
C400        H405   1.081       .  S
C401        C509   1.447       .  S
C401        C402   1.397       .  A
C402       Br859   1.919       .  S
Br403       C858   1.919       .  S
C407        C408   1.397       .  A
C407        C412   1.399       .  A
C407        H414   1.084       .  S
C408        C409   1.403       .  A
C409        C410   1.398       .  A
C409       Br416   1.919       .  S
C410        C411   1.414       .  A
C410        H415   1.076       .  S
C411        C412   1.424       .  A
C412       Br413   1.924       .  S
C417        C418   1.397       .  A
C417        C422   1.403       .  A
C417        H424   1.084       .  S
C418        C419   1.405       .  A
C419        C420   1.400       .  A
C419       Br426   1.921       .  S
C420        C421   1.412       .  A
C420        H425   1.075       .  S
C421        C422   1.427       .  A
C422       Br423   1.926       .  S
C427        C428   1.409       .  A
C427        C432   1.377       .  A
C427        H434   1.084       .  S
C428        C429   1.420       .  A
C429        C430   1.400       .  A
C429       Br436   1.914       .  S
C430        C431   1.396       .  A
C430        H435   1.084       .  S
C431        C432   1.404       .  A
C432       Br433   1.925       .  S
C437        C438   1.410       .  A
C437        C442   1.389       .  A
C437        H444   1.081       .  S
C438        C439   1.423       .  A
C439        C440   1.403       .  A
C439       Br446   1.922       .  S
C440        C441   1.398       .  A
C440        H445   1.083       .  S
C441        C442   1.404       .  A
C442       Br443   1.922       .  S
C447        C448   1.415       .  A
C447        C452   1.395       .  A
C447        H454   1.074       .  S
C448        C449   1.420       .  A
C449        C450   1.379       .  A
C449       Br456   1.931       .  S
C450        C451   1.393       .  A
C450        H455   1.082       .  S
C451        C736   1.452       .  S
C451        C452   1.395       .  A
C452       Br909   1.919       .  S
Br453       C908   1.919       .  S
C457        C458   1.531   1_554  S
C457        C463   1.526   1_554  S
C457        C461   1.521       .  S
C457        C904   1.513       .  S
C458        H465   1.080       .  S
C458        C459   1.362       .  D
C459        C460   1.561       .  S
C459        C495   1.476       .  S
C460        C464   1.539       .  S
C460        C462   1.558   1_556  S
C460        H466   1.110       .  S
C461        H467   1.087       .  S
C461        C462   1.359       .  D
C462        C713   1.489       .  S
C463        H468   1.087       .  S
C463        C464   1.362       .  D
C464        C897   1.471       .  S
C469        C470   1.533       .  S
C469        C475   1.538       .  S
C469        C473   1.522       .  S
C469        C884   1.520       .  S
C470        H477   1.079       .  S
C470        C471   1.367       .  D
C471        C472   1.565       .  S
C471        C482   1.478       .  S
C472        C476   1.542       .  S
C472        C474   1.555       .  S
C472        H478   1.110       .  S
C473        H479   1.088       .  S
C473        C474   1.356       .  D
C474        C726   1.487       .  S
C475        H480   1.088       .  S
C475        C476   1.356       .  D
C476        C874   1.478       .  S
In481       O483   2.328       .  S
In481       O484   2.259       .  S
In481       O492   2.213       .  S
In481       O486   2.260   1_545  S
In481       O488   2.256   1_545  S
In481       O489   2.311       .  S
In481       O490   2.238   1_545  S
In481       O493   2.192   1_545  S
C482        O488   1.262       .  A
C482        O490   1.264       .  A
O483        C491   1.267       .  A
O484        C491   1.267       .  A
C485        O492   1.261       .  A
C485        O486   1.268   1_545  A
C485        C498   1.461       .  S
C487        C681   1.478       .  S
C487        O489   1.268       .  A
C487        O493   1.255   1_545  A
C491        C514   1.519       .  S
In494       O496   2.335       .  S
In494       O497   2.240       .  S
In494       O505   2.218       .  S
In494       O499   2.269   1_545  S
In494       O501   2.256   1_545  S
In494       O502   2.317       .  S
In494       O503   2.221   1_545  S
In494       O506   2.197       .  S
C495        O501   1.261       .  A
C495        O503   1.267       .  A
O496        C504   1.265       .  A
O497        C504   1.266       .  A
C498        O505   1.257       .  A
C498        O499   1.264   1_545  A
C500        C693   1.479       .  S
C500        O502   1.256       .  A
C500        O506   1.256       .  A
C504        C526   1.517       .  S
C507        C508   1.543       .  S
C507        C513   1.530       .  S
C507        C511   1.514       .  S
C507        C867   1.540       .  S
C508        H515   1.082       .  S
C508        C509   1.369       .  D
C509        C510   1.521       .  S
C510        C514   1.572       .  S
C510        C512   1.578       .  S
C510        H516   1.110       .  S
C511        H517   1.082       .  S
C511        C512   1.367       .  D
C513        H518   1.087       .  S
C513        C514   1.372       .  D
C519        C525   1.533       .  S
C519        C523   1.515       .  S
C519        C844   1.537       .  S
C520        H527   1.086       .  S
C520        C521   1.367       .  D
C521        C834   1.448       .  S
C522        C526   1.572       .  S
C522        C524   1.576   1_655  S
C522        H528   1.110       .  S
C523        H529   1.082   1_655  S
C523        C524   1.372   1_655  D
C525        H530   1.084       .  S
C525        C526   1.370       .  D
C531        C532   1.527       .  S
C531        C537   1.535   1_554  S
C531        C535   1.510       .  S
C531        C824   1.509       .  S
C532        H539   1.083       .  S
C532        C533   1.363       .  D
C533        C534   1.562   1_554  S
C534        C538   1.550       .  S
C534        C536   1.556       .  S
C534        H540   1.110       .  S
C535        H541   1.088       .  S
C535        C536   1.353   1_554  D
C536        C569   1.472       .  S
C537        H542   1.086       .  S
C537        C538   1.368       .  D
C538        C847   1.485       .  S
C543        C544   1.529       .  S
C543        C549   1.532       .  S
C543        C547   1.524       .  S
C543        C814   1.515       .  S
C544        H551   1.088       .  S
C544        C545   1.353       .  D
C545        C546   1.550       .  S
C545        C648   1.476       .  S
C546        C550   1.537       .  S
C546        C548   1.563       .  S
C546        H552   1.110       .  S
C547        H553   1.079       .  S
C547        C548   1.368       .  D
C548        C556   1.470       .  S
C549        H554   1.088       .  S
C549        C550   1.354       .  D
C550        C864   1.473       .  S
In555       O557   2.218       .  S
In555       O558   2.351       .  S
In555       O566   2.194       .  S
In555       O560   2.254       .  S
In555       O562   2.260       .  S
In555       O563   2.275       .  S
In555       O564   2.213       .  S
In555       O567   2.327       .  S
C556        O562   1.261       .  A
C556        O564   1.262       .  A
O557        C565   1.254       .  A
O558        C565   1.267       .  A
C559        O566   1.262       .  A
C559        O560   1.268       .  A
C561        C595   1.524       .  S
C561        O563   1.271       .  A
C561        O567   1.265       .  A
In568       O571   2.331       .  S
In568       O579   2.199       .  S
In568       O573   2.255       .  S
In568       O575   2.263       .  S
In568       O576   2.266       .  S
In568       O577   2.196       .  S
In568       O580   2.337       .  S
C569        O575   1.263       .  A
C569        O577   1.266       .  A
O570        C578   1.257       .  A
C572        O579   1.260   1_455  A
C572        O573   1.266   1_455  A
C574        C583   1.523       .  S
C574        O576   1.269       .  A
C574        O580   1.262       .  A
C578        C610   1.495       .  S
C581        C582   1.536       .  S
C581        C587   1.532       .  S
C581        C585   1.505       .  S
C581        C894   1.532       .  S
C582        H589   1.086       .  S
C582        C583   1.364       .  D
C583        C584   1.574       .  S
C584        C588   1.531       .  S
C584        C586   1.588       .  S
C584        H590   1.102       .  S
C585        H591   1.085       .  S
C585        C586   1.370       .  D
C586        C598   1.547       .  S
C587        H592   1.084       .  S
C587        C588   1.372       .  D
C588        C807   1.461       .  S
C593        C594   1.531       .  S
C593        C599   1.541       .  S
C593        C597   1.507       .  S
C593        C877   1.545       .  S
C594        H601   1.087       .  S
C594        C595   1.367       .  D
C595        C596   1.575       .  S
C596        C600   1.535       .  S
C596        C598   1.591       .  S
C596        H602   1.105       .  S
C597        H603   1.085       .  S
C597        C598   1.368       .  D
C599        H604   1.080       .  S
C599        C600   1.381       .  D
C600        C794   1.480       .  S
C605        C606   1.512   1_556  S
C605        C611   1.536   1_556  S
C605        C609   1.523       .  S
C605        C804   1.512       .  S
C606        H613   1.087       .  S
C606        C607   1.355       .  D
C607        C608   1.554       .  S
C607        C630   1.475       .  S
C608        C612   1.554       .  S
C608        C610   1.564   1_554  S
C608        H614   1.110       .  S
C609        H615   1.080       .  S
C609        C610   1.363       .  D
C611        H616   1.085       .  S
C611        C612   1.368       .  D
C612        C784   1.492       .  S
C617        C618   1.506       .  S
C617        C623   1.532       .  S
C617        C621   1.534       .  S
C617        C797   1.512       .  S
C618        H625   1.088       .  S
C618        C619   1.349       .  D
C619        C620   1.562       .  S
C619        C643   1.466       .  S
C620        C624   1.555       .  S
C620        C622   1.562       .  S
C620        H626   1.108       .  S
C621        H627   1.083       .  S
C621        C622   1.367       .  D
C623        H628   1.086       .  S
C623        C624   1.370       .  D
C624        C774   1.497       .  S
In629       O631   2.348       .  S
In629       O632   2.252       .  S
In629       O640   2.212       .  S
In629       O634   2.255       .  S
In629       O636   2.271       .  S
In629       O637   2.324       .  S
In629       O638   2.195       .  S
In629       O641   2.236       .  S
C630        O636   1.263       .  A
C630        O638   1.264       .  A
O631        C639   1.263       .  A
O632        C639   1.268       .  A
C633        O640   1.260       .  A
C633        O634   1.266       .  A
C635        O637   1.257       .  A
C635        O641   1.256       .  A
C639        C674   1.524       .  S
In642       O644   2.330       .  S
In642       O645   2.220       .  S
In642       O653   2.205       .  S
In642       O647   2.245       .  S
In642       O649   2.236       .  S
In642       O650   2.303       .  S
In642       O651   2.191       .  S
C643        O649   1.262       .  A
C643        O651   1.263       .  A
O644        C652   1.267       .  A
O645        C652   1.268       .  A
C646        O653   1.262       .  A
C646        O647   1.268       .  A
C648        O654   1.256       .  A
C652        C662   1.508       .  S
C655        C656   1.529       .  S
C655        C661   1.518       .  S
C655        C659   1.522       .  S
C655        C767   1.539       .  S
C656        H663   1.088       .  S
C656        C657   1.357       .  D
C657        C658   1.518       .  S
C657        C817   1.444       .  S
C658        C662   1.585       .  S
C658        C660   1.574       .  S
C658        H664   1.110       .  S
C659        H665   1.070       .  S
C659        C660   1.382       .  D
C660        C672   1.553       .  S
C661        H666   1.087       .  S
C661        C662   1.367       .  D
C667        C668   1.532       .  S
C667        C673   1.530       .  S
C667        C671   1.499       .  S
C667        C757   1.526       .  S
C668        H675   1.085       .  S
C668        C669   1.371       .  D
C669        C670   1.531       .  S
C669        C827   1.464       .  S
C670        C674   1.582       .  S
C670        C672   1.594       .  S
C670        H676   1.109       .  S
C671        H677   1.077       .  S
C671        C672   1.367       .  D
C673        H678   1.084       .  S
C673        C674   1.366       .  D
C679        C680   1.520       .  S
C679        C685   1.528       .  S
C679        C683   1.524   1_545  S
C679        C854   1.508       .  S
C680        H687   1.087       .  S
C680        C681   1.354       .  D
C681        C682   1.548       .  S
C682        C686   1.547       .  S
C682        C684   1.563   1_545  S
C682        H688   1.109       .  S
C683        H689   1.085       .  S
C683        C684   1.363       .  D
C684        C717   1.469       .  S
C685        H690   1.084       .  S
C685        C686   1.363       .  D
C686        C764   1.492       .  S
C691        C692   1.515       .  S
C691        C697   1.525   1_556  S
C691        C695   1.532   1_546  S
C691        C837   1.508       .  S
C692        H699   1.087       .  S
C692        C693   1.357       .  D
C693        C694   1.553   1_556  S
C694        C698   1.533       .  S
C694        C696   1.557   1_545  S
C694        H700   1.111       .  S
C695        H701   1.082       .  S
C695        C696   1.363       .  D
C696        C704   1.471       .  S
C697        H702   1.087       .  S
C697        C698   1.360       .  D
C698        C754   1.465       .  S
In703       O705   2.214       .  S
In703       O706   2.327       .  S
In703       O714   2.217       .  S
In703       O708   2.266       .  S
In703       O710   2.250       .  S
In703       O711   2.236       .  S
In703       O712   2.213       .  S
In703       O715   2.342       .  S
C704        O710   1.260       .  A
C704        O712   1.264       .  A
O705        C713   1.255       .  A
O706        C713   1.258       .  A
C707        O714   1.260       .  A
C707        O708   1.266       .  A
C707        C720   1.463       .  S
C709        C731   1.517       .  S
C709        O711   1.267       .  A
C709        O715   1.265       .  A
In716       O718   2.211       .  S
In716       O719   2.327       .  S
In716       O727   2.211       .  S
In716       O721   2.259       .  S
In716       O723   2.260       .  S
In716       O724   2.229       .  S
In716       O725   2.204       .  S
In716       O728   2.359       .  S
C717        O723   1.262       .  A
C717        O725   1.262       .  A
O718        C726   1.255       .  A
O719        C726   1.267       .  A
C720        O727   1.262       .  A
C720        O721   1.269       .  A
C722        C743   1.523       .  S
C722        O724   1.268       .  A
C722        O728   1.267       .  A
C729        C730   1.525       .  S
C729        C735   1.534       .  S
C729        C733   1.517       .  S
C729        C787   1.538       .  S
C730        H737   1.082       .  S
C730        C731   1.371       .  D
C731        C732   1.583       .  S
C732        C736   1.525       .  S
C732        C734   1.580       .  S
C732        H738   1.110       .  S
C733        H739   1.079       .  S
C733        C734   1.376       .  D
C735        H740   1.087       .  S
C735        C736   1.363       .  D
C741        C742   1.508       .  S
C741        C745   1.531       .  S
C741        C777   1.535       .  S
C742        H749   1.087       .  S
C742        C743   1.364       .  D
C743        C744   1.597       .  S
C744        C746   1.582       .  S
C744        H750   1.110       .  S
C745        H751   1.072       .  S
C745        C746   1.382       .  D
C747        H752   1.088       .  S
C747        C748   1.356       .  D
C748        C887   1.458       .  S
C753        C754   1.396       .  A
C753        C758   1.398       .  A
C753        H760   1.084       .  S
C754        C755   1.404       .  A
C755        C756   1.388       .  A
C755       Br762   1.923       .  S
C756        C757   1.408       .  A
C756        H761   1.078       .  S
C757        C758   1.424       .  A
C758       Br759   1.925       .  S
C763        C764   1.402       .  A
C763        C768   1.402       .  A
C763        H770   1.082       .  S
C764        C765   1.413       .  A
C765        C766   1.392       .  A
C765       Br772   1.926       .  S
C766        C767   1.410       .  A
C766        H771   1.084       .  S
C767        C768   1.427       .  A
C768       Br769   1.922       .  S
C773        C774   1.405       .  A
C773        C778   1.394       .  A
C773        H780   1.083       .  S
C774        C775   1.411       .  A
C775        C776   1.401       .  A
C775       Br782   1.910       .  S
C776        C777   1.410       .  A
C776        H781   1.074       .  S
C777        C778   1.421       .  A
C783        C784   1.398       .  A
C783        C788   1.397       .  A
C783        H790   1.082       .  S
C784        C785   1.417       .  A
C785        C786   1.400       .  A
C785       Br792   1.924       .  S
C786        C787   1.408       .  A
C786        H791   1.077       .  S
C787        C788   1.424       .  A
C793        C794   1.400       .  A
C793        C798   1.391       .  A
C793        H800   1.084       .  S
C794        C795   1.402       .  A
C795        C796   1.391       .  A
C795       Br802   1.910       .  S
C796        C797   1.408       .  A
C796        H801   1.079       .  S
C797        C798   1.418       .  A
C798       Br799   1.924       .  S
C803        C804   1.407       .  A
C803        C808   1.387       .  A
C803        H810   1.084   1_556  S
C804        C805   1.418       .  A
C805        C806   1.391       .  A
C805       Br812   1.925       .  S
C806        C807   1.398       .  A
C806        H811   1.082       .  S
C807        C808   1.403       .  A
C808       Br809   1.919       .  S
C813        C814   1.412       .  A
C813        C818   1.368       .  A
C813        H820   1.084       .  S
C814        C815   1.423       .  A
C815        C816   1.400       .  A
C815       Br822   1.920       .  S
C816        C817   1.398       .  A
C816        H821   1.085       .  S
C817        C818   1.393       .  A
C818       Br819   1.920       .  S
C823        C824   1.407       .  A
C823        C828   1.388       .  A
C823        H830   1.083   1_554  S
C824        C825   1.416       .  A
C825        C826   1.390       .  A
C825       Br832   1.924       .  S
C826        C827   1.399       .  A
C826        H831   1.082       .  S
C827        C828   1.404       .  A
C828       Br829   1.921       .  S
C833        C834   1.393       .  A
C833        C838   1.379       .  A
C833        H840   1.084       .  S
C834        C835   1.395       .  A
C835        C836   1.391       .  A
C835       Br842   1.918       .  S
C836        C837   1.412       .  A
C836        H841   1.077       .  S
C837        C838   1.423       .  A
C838       Br839   1.933       .  S
C843        C844   1.410       .  A
C843        C848   1.397       .  A
C843        H850   1.079       .  S
C844        C845   1.424       .  A
C845        C846   1.401       .  A
C846        C847   1.399       .  A
C847        C848   1.410       .  A
C848       Br849   1.923       .  S
C853        C854   1.413       .  A
C853        C858   1.393   1_655  A
C853        H860   1.080       .  S
C854        C855   1.425       .  A
C855        C856   1.378       .  A
C855       Br862   1.933       .  S
C856        C857   1.388   1_655  A
C856        H861   1.081       .  S
C857        C858   1.397       .  A
C863        C864   1.397       .  A
C863        C868   1.399       .  A
C863        H870   1.084       .  S
C864        C865   1.403       .  A
C865        C866   1.398       .  A
C865       Br872   1.919       .  S
C866        C867   1.414       .  A
C866        H871   1.076       .  S
C867        C868   1.424       .  A
C868       Br869   1.924       .  S
C873        C874   1.397       .  A
C873        C878   1.403       .  A
C873        H880   1.084       .  S
C874        C875   1.405       .  A
C875        C876   1.400       .  A
C875       Br882   1.921       .  S
C876        C877   1.412       .  A
C876        H881   1.075       .  S
C877        C878   1.427       .  A
C878       Br879   1.926       .  S
C883        C884   1.409       .  A
C883        C888   1.377       .  A
C883        H890   1.084       .  S
C884        C885   1.420       .  A
C885        C886   1.400       .  A
C885       Br892   1.914       .  S
C886        C887   1.396       .  A
C886        H891   1.084       .  S
C887        C888   1.404       .  A
C888       Br889   1.925       .  S
C893        C894   1.410       .  A
C893        C898   1.389       .  A
C893        H900   1.081       .  S
C894        C895   1.423       .  A
C895        C896   1.403       .  A
C895       Br902   1.922       .  S
C896        C897   1.398       .  A
C896        H901   1.083       .  S
C897        C898   1.404       .  A
C898       Br899   1.922       .  S
C903        C904   1.415       .  A
C903        C908   1.395   1_655  A
C903        H910   1.074       .  S
C904        C905   1.420       .  A
C905        C906   1.379       .  A
C905       Br912   1.931       .  S
C906        C907   1.393   1_655  A
C906        H911   1.082       .  S
C907        C908   1.395       .  A
