geometry optimzed in LAMMPS
_audit_creation_date              2020-11-30 
_audit_creation_method            'lammps2cif' 
_symmetry_space_group_name_H-M    'P1' 
_symmetry_Int_Tables_number       1 
_symmetry_cell_setting            triclinic 
loop_ 
_symmetry_equiv_pos_as_xyz 
  x,y,z 
_cell_length_a                    40.09149791 
_cell_length_b                    43.83174062760841 
_cell_length_c                    43.47140043191377 
_cell_angle_alpha                 90.16196938899274 
_cell_angle_beta                  89.85747186792723 
_cell_angle_gamma                 88.444524138092 
loop_ 
_atom_site_label 
_atom_site_type_symbol 
_atom_site_fract_x 
_atom_site_fract_y 
_atom_site_fract_z 
_atom_site_charge 
Zr1        Zr  0.80605397  0.77508031  0.77107877     2.17500
O2          O  0.85947685  0.80044356  0.76956173    -0.51700
O3          O  0.78720540  0.79091269  0.82211374    -0.74900
O4          O  0.80012011  0.82961992  0.76409439    -0.81600
O5          O  0.85248911  0.70355661  0.79970436    -0.83400
O6          O  0.76501254  0.83793831  0.72386408    -0.79000
O7          O  0.85078477  0.75529172  0.80137779    -0.90600
O8          O  0.73594638  0.77158945  0.82998643    -0.76600
O9          O  0.74764253  0.78318728  0.76629345    -0.86100
O10         O  0.78290187  0.73124578  0.79416428    -0.85800
O11         O  0.79803920  0.77976550  0.71666749    -0.72500
O12         O  0.82878638  0.73188621  0.74326362    -0.84700
Zr13       Zr  0.73462754  0.70163566  0.70523835     2.26400
Zr14       Zr  0.73906687  0.78822079  0.71205502     2.06300
Zr15       Zr  0.80447640  0.68813344  0.76595578     2.10000
Zr16       Zr  0.72443060  0.73841012  0.78791568     1.78800
O17         O  0.84887367  0.65644806  0.74316561    -0.93500
O18         O  0.67292392  0.76813244  0.79618335    -0.41300
O19         O  0.74522685  0.69564588  0.75934495    -0.77900
O20         O  0.71308908  0.74441406  0.73469352    -0.96600
O21         O  0.75955629  0.74483228  0.68260815    -0.89900
O22         O  0.79308866  0.69178593  0.71144689    -0.92800
C23         C  0.76065961  0.78739935  0.83819173     1.01000
C24         C  0.86403130  0.72956238  0.80873758     1.13900
C25         C  0.78568382  0.84720017  0.74449296     1.04700
O26         O  0.69703549  0.82721504  0.72525623    -0.94900
O27         O  0.68595070  0.77700432  0.68724661    -0.90700
O28         O  0.68422935  0.72535161  0.68329910    -0.83800
C29         C  0.67130261  0.75226111  0.67978140     1.11300
O30         O  0.87289481  0.75750700  0.69098855    -0.96900
Zr31       Zr  0.81795588  0.73515597  0.68905418     1.88900
O32         O  0.75270278  0.68678850  0.65377431    -0.73500
O33         O  0.74556012  0.81024742  0.66108944    -0.52800
O34         O  0.82796190  0.77110738  0.64769079    -0.97500
O35         O  0.86133715  0.69589896  0.68030720    -0.54700
O36         O  0.80122488  0.70911712  0.64206263    -0.74100
C37         C  0.77651659  0.69239454  0.63508056     0.98300
O38         O  0.69141176  0.66556024  0.69209790    -0.62900
O39         O  0.80489399  0.65619456  0.81176092    -0.57700
O40         O  0.73335602  0.64966830  0.72344474    -0.94400
O41         O  0.77180110  0.64120565  0.76119294    -0.92800
O42         O  0.72751740  0.70502144  0.83257184    -0.93100
O43         O  0.67414699  0.70865972  0.79173289    -0.91900
C44         C  0.74767701  0.63274070  0.74372049     1.17100
H45         H  0.78883509  0.72960335  0.81563224     0.33100
H46         H  0.68907747  0.74616365  0.73454960     0.43900
H47         H  0.79957199  0.67309919  0.70095139     0.37500
H48         H  0.80982981  0.79710287  0.70899101     0.33900
H49         H  0.66810983  0.76611685  0.81843211     0.25700
H50         H  0.76960814  0.81458555  0.65952146     0.31700
H51         H  0.80675178  0.77222465  0.63608918     0.37600
H52         H  0.74365405  0.68853069  0.82665020     0.32000
H53         H  0.82635661  0.64451132  0.81071999     0.30900
H54         H  0.83744526  0.63847635  0.73483358     0.32600
H55         H  0.87307066  0.70252045  0.66150708     0.31600
H56         H  0.67423924  0.69601207  0.77282354     0.35600
H57         H  0.67066638  0.67304450  0.70236701     0.28300
H58         H  0.85783690  0.81727105  0.78479056     0.32500
H59         H  0.88204857  0.75156393  0.71131117     0.35400
H60         H  0.80746428  0.67045508  0.82924213     0.28000
H61         H  0.68724674  0.66808314  0.66978768     0.40900
H62         H  0.69000480  0.82208118  0.74641560     0.30900
H63         H  0.67936226  0.78962938  0.79370678     0.38500
H64         H  0.84957653  0.67742125  0.67375720     0.30400
H65         H  0.74226217  0.79314915  0.64657720     0.30400
H66         H  0.86034090  0.81058175  0.74925660     0.30700
C67         C  0.88112522  0.99900313  0.79345434     0.86200
C68         C  0.86231858  0.96883668  0.79062312    -0.54100
C69         C  0.84529465  0.96514688  0.76352426     0.09100
C70         C  0.84847518  0.99275967  0.74150046     0.20000
C71         C  0.90319669  0.99993186  0.76444444    -0.54800
C72         C  0.88650886  0.99680142  0.73729026     0.09200
C73         C  0.85350194  0.02358222  0.78796006    -0.54300
C74         C  0.83628343  0.02052260  0.76107120     0.09800
H75         H  0.86279280  0.95164997  0.80855778     0.14300
H76         H  0.83475756  0.99029007  0.71951263     0.00000
H77         H  0.92992296  0.00327753  0.76534416     0.14600
H78         H  0.84726503  0.04195296  0.80378907     0.14400
Zr79       Zr  0.76851774  0.20007738  0.70684225     2.17500
O80         O  0.82026362  0.17251447  0.69333934    -0.51700
O81         O  0.75361569  0.18755310  0.65447497    -0.74900
O82         O  0.76956696  0.14616685  0.72020775    -0.81600
O83         O  0.81314424  0.27611057  0.69366803    -0.83400
O84         O  0.72931026  0.13635353  0.75530011    -0.79000
O85         O  0.81946676  0.22456031  0.69123503    -0.90600
O86         O  0.70250210  0.20811987  0.64414710    -0.76600
O87         O  0.71051795  0.19024301  0.71077007    -0.86100
O88         O  0.74096129  0.24354326  0.68445644    -0.85800
O89         O  0.75809977  0.19378102  0.76088711    -0.72500
O90         O  0.78546834  0.24312926  0.73613714    -0.84700
Zr91       Zr  0.68873839  0.27285311  0.77101622     2.26400
Zr92       Zr  0.69925299  0.18542842  0.76477743     2.06300
Zr93       Zr  0.75756532  0.28668627  0.71408061     2.10000
Zr94       Zr  0.68283708  0.23406560  0.68952567     1.78800
O95         O  0.79499816  0.32520645  0.73321311    -0.93500
O96         O  0.64176761  0.19518224  0.67993206    -0.41300
O97         O  0.69892971  0.27847909  0.71729717    -0.77900
O98         O  0.67052217  0.22911280  0.74280223    -0.96600
O99         O  0.71560677  0.22923306  0.79366038    -0.89900
O100        O  0.74673510  0.28177919  0.76782649    -0.92800
C101        C  0.72900599  0.19310255  0.63643682     1.01000
C102        C  0.83037486  0.25162241  0.68788312     1.13900
C103        C  0.75434977  0.12801559  0.73821181     1.04700
O104        O  0.65777944  0.15060826  0.74557601    -0.94900
O105        O  0.64917575  0.19674602  0.79628323    -0.90700
O106        O  0.64583545  0.24841170  0.79979406    -0.83800
C107        C  0.63519457  0.22185590  0.80600173     1.11300
O108        O  0.82805647  0.21154017  0.79103473    -0.96900
Zr109      Zr  0.77362702  0.23766059  0.78939078     1.88900
O110        O  0.70464873  0.28965668  0.82180955    -0.73500
O111        O  0.70622569  0.16009521  0.81420932    -0.52800
O112        O  0.77817155  0.20275555  0.83285584    -0.97500
O113        O  0.81799550  0.27355082  0.79836942    -0.54700
O114        O  0.75372993  0.26570503  0.83340713    -0.74100
C115        C  0.72887526  0.28337454  0.84008693     0.98300
O116        O  0.63688417  0.30331852  0.77297130    -0.62900
O117        O  0.75667638  0.30773346  0.66228327    -0.57700
O118        O  0.68710971  0.32669770  0.75700913    -0.94400
O119        O  0.72708022  0.33528441  0.72129532    -0.92800
O120        O  0.67274005  0.26978470  0.64756000    -0.93100
O121        O  0.62580258  0.25471835  0.68956055    -0.91900
C122        C  0.70248655  0.34429925  0.73841078     1.17100
H123        H  0.74747350  0.24641036  0.66328425     0.33100
H124        H  0.64667699  0.22708913  0.74461301     0.43900
H125        H  0.75247336  0.30013564  0.77866985     0.37500
H126        H  0.77104600  0.17691202  0.76927084     0.33900
H127        H  0.63591670  0.19751226  0.65792965     0.25700
H128        H  0.69636799  0.13981633  0.81135497     0.31700
H129        H  0.75746108  0.20630193  0.84494725     0.37600
H130        H  0.67882257  0.28987465  0.65599741     0.32000
H131        H  0.73372261  0.31619539  0.65967514     0.30900
H132        H  0.79939462  0.33833762  0.71524059     0.32600
H133        H  0.80854422  0.28891563  0.81291861     0.31600
H134        H  0.62508247  0.26962509  0.70672191     0.35600
H135        H  0.61926630  0.28988503  0.76526132     0.28300
H136        H  0.81397785  0.15580017  0.67932203     0.32500
H137        H  0.83748570  0.21638404  0.81145009     0.35400
H138        H  0.77077915  0.32589019  0.66349275     0.28000
H139        H  0.63182971  0.30641710  0.79508636     0.40900
H140        H  0.65615944  0.13486015  0.76175881     0.30900
H141        H  0.65441333  0.17549662  0.68092727     0.38500
H142        H  0.82008095  0.28467518  0.77870403     0.30400
H143        H  0.73052177  0.15577336  0.81587937     0.30400
H144        H  0.82836554  0.16239858  0.71236051     0.30700
C145        C  0.66269557  0.52722302  0.74625313     0.86200
C146        C  0.63938053  0.52408001  0.77429195    -0.54100
C147        C  0.61682886  0.50152609  0.77155099     0.09100
C148        C  0.61923909  0.48387601  0.74090512     0.20000
C149        C  0.67841082  0.49508368  0.74170108    -0.54800
C150        C  0.65602543  0.47208648  0.73903785     0.09200
C151        C  0.63838389  0.53133477  0.71902419    -0.54300
C152        C  0.61559131  0.50875682  0.71589022     0.09800
H153        H  0.63957965  0.53833668  0.79463695     0.14300
H154        H  0.60030790  0.46608248  0.73872139     0.00000
H155        H  0.70523454  0.49097093  0.74170014     0.14600
H156        H  0.63982094  0.55031193  0.70315021     0.14400
C157        C  0.76424953  0.64884042  0.45246118     0.86200
C158        C  0.72882911  0.63737883  0.45312698    -0.54100
C159        C  0.72149893  0.61987613  0.47764853     0.09100
C160        C  0.75082137  0.61534501  0.50041235     0.20000
C161        C  0.76840315  0.66551225  0.48356977    -0.54800
C162        C  0.76200731  0.64789013  0.50895695     0.09200
C163        C  0.78686452  0.62014167  0.45562595    -0.54300
C164        C  0.77969058  0.60237778  0.48046352     0.09800
H165        H  0.71074237  0.64250450  0.43512225     0.14300
H166        H  0.74504334  0.60048865  0.52022874     0.00000
H167        H  0.77625476  0.68883541  0.48551623     0.14600
H168        H  0.80748045  0.61482498  0.44007987     0.14400
Zr169      Zr  0.71572733  0.80290339  0.20719979     2.17500
O170        O  0.66846017  0.83347727  0.18769713    -0.51700
O171        O  0.73197613  0.81698694  0.15452550    -0.74900
O172        O  0.71272291  0.85545952  0.22626746    -0.81600
O173        O  0.67687769  0.73137492  0.17816570    -0.83400
O174        O  0.75260662  0.86287114  0.26230727    -0.79000
O175        O  0.66345947  0.77977650  0.19325225    -0.90600
O176        O  0.78185206  0.79445299  0.14244070    -0.76600
O177        O  0.77400433  0.81157730  0.21190701    -0.86100
O178        O  0.74260927  0.76033449  0.18230547    -0.85800
O179        O  0.72567737  0.80508266  0.26202817    -0.72500
O180        O  0.69790750  0.75808297  0.23412736    -0.84700
Zr181      Zr  0.79481672  0.72529404  0.26597714     2.26400
Zr182      Zr  0.78457923  0.81322333  0.26647080     2.06300
Zr183      Zr  0.72538586  0.71561708  0.20870898     2.10000
Zr184      Zr  0.80079041  0.76836358  0.18752687     1.78800
O185        O  0.68105352  0.68206696  0.22441575    -0.93500
O186        O  0.84234865  0.80679944  0.17805207    -0.41300
O187        O  0.78419499  0.72250197  0.21213172    -0.77900
O188        O  0.81281679  0.77087328  0.24105274    -0.96600
O189        O  0.76848610  0.76752796  0.29199177    -0.89900
O190        O  0.73664922  0.71708496  0.26257271    -0.92800
C191        C  0.75604760  0.81067343  0.13568459     1.01000
C192        C  0.65706550  0.75492323  0.17907877     1.13900
C193        C  0.72735593  0.87233621  0.24598961     1.04700
O194        O  0.82695576  0.84835446  0.24981648    -0.94900
O195        O  0.83423863  0.79727971  0.29738296    -0.90700
O196        O  0.83770058  0.74537093  0.29803595    -0.83800
C197        C  0.84819532  0.77160553  0.30580137     1.11300
O198        O  0.65535085  0.78411045  0.29194970    -0.96900
Zr199      Zr  0.71052408  0.75943042  0.28817121     1.88900
O200        O  0.78119696  0.70637705  0.31613625    -0.73500
O201        O  0.78141819  0.83558131  0.31781138    -0.52800
O202        O  0.70652711  0.79336036  0.33263523    -0.97500
O203        O  0.66817372  0.72184594  0.29841952    -0.54700
O204        O  0.73341271  0.73093394  0.33185232    -0.74100
C205        C  0.75862522  0.71271456  0.33614921     0.98300
O206        O  0.84931095  0.69997675  0.25876007    -0.62900
O207        O  0.73179765  0.69028752  0.15897889    -0.57700
O208        O  0.79006731  0.67077621  0.25582588    -0.94400
O209        O  0.75276884  0.66527090  0.21693664    -0.92800
O210        O  0.80865160  0.73407614  0.14374431    -0.93100
O211        O  0.85616786  0.74411231  0.18576939    -0.91900
C212        C  0.77454972  0.65450638  0.23610608     1.17100
H213        H  0.73603850  0.75863789  0.16103530     0.33100
H214        H  0.83668362  0.77261424  0.24303580     0.43900
H215        H  0.73091070  0.69807931  0.27222291     0.37500
H216        H  0.71256725  0.82114883  0.27182041     0.33900
H217        H  0.85325083  0.80043772  0.15851178     0.25700
H218        H  0.79557741  0.85371122  0.31671764     0.31700
H219        H  0.69497607  0.78149112  0.34860909     0.37600
H220        H  0.82211892  0.74559387  0.12884224     0.32000
H221        H  0.72697023  0.70630644  0.14348801     0.30900
H222        H  0.66102747  0.69561461  0.22662312     0.32600
H223        H  0.68061947  0.70247886  0.30251763     0.31600
H224        H  0.85263105  0.72264314  0.19169372     0.35600
H225        H  0.84721669  0.68727640  0.24003073     0.28300
H226        H  0.67803271  0.85138111  0.17740079     0.32500
H227        H  0.64548425  0.77672672  0.31136657     0.35400
H228        H  0.75608488  0.68601684  0.15696708     0.28000
H229        H  0.86434155  0.71635454  0.25231620     0.40900
H230        H  0.83725349  0.83850749  0.23148256     0.30900
H231        H  0.82931742  0.82554776  0.17271065     0.38500
H232        H  0.65726683  0.71860925  0.27832271     0.30400
H233        H  0.75834917  0.84401145  0.31978518     0.30400
H234        H  0.65640779  0.84182244  0.20591520     0.30700
C235        C  0.75093936  0.85317255  0.95359706     0.86200
C236        C  0.78182790  0.87283966  0.95411653    -0.54100
C237        C  0.78491659  0.89050756  0.97960897     0.09100
C238        C  0.75527559  0.88841495  0.00193633     0.20000
C239        C  0.75132958  0.83588996  0.98433539    -0.54800
C240        C  0.75353830  0.85426056  0.00982630     0.09200
C241        C  0.72222375  0.87698905  0.95654862    -0.54300
C242        C  0.72444589  0.89526516  0.98188925     0.09800
H243        H  0.79982972  0.87305313  0.93541684     0.14300
H244        H  0.75724824  0.90347001  0.02230191     0.00000
H245        H  0.74913900  0.81130638  0.98552224     0.14600
H246        H  0.70229609  0.88026684  0.94004597     0.14400
C247        C  0.49037013  0.72283343  0.08246650     0.86200
C248        C  0.46456258  0.73122574  0.10758931    -0.54100
C249        C  0.47110531  0.75741127  0.12320494     0.09100
C250        C  0.50321313  0.77281595  0.11268282     0.20000
C251        C  0.49102460  0.75147596  0.06223155    -0.54800
C252        C  0.49819132  0.77765807  0.07772626     0.09200
C253        C  0.52393011  0.72185266  0.09922403    -0.54300
C254        C  0.53099652  0.74778057  0.11500797     0.09800
H255        H  0.44171514  0.71929033  0.11176769     0.14300
H256        H  0.50877056  0.79390433  0.12563882     0.00000
H257        H  0.48518549  0.75100097  0.03787864     0.14600
H258        H  0.54079227  0.70202379  0.09858053     0.14400
C259        C  0.34059192  0.96284104  0.75797963     0.86200
C260        C  0.35903086  0.96377523  0.78864049    -0.54100
C261        C  0.37899513  0.98808757  0.79265292     0.09100
C262        C  0.37881996  0.01007433  0.76443793     0.20000
C263        C  0.32171759  0.99366557  0.75616400    -0.54800
C264        C  0.34137292  0.01848496  0.75900329     0.09200
C265        C  0.36787285  0.96519933  0.73325618    -0.54300
C266        C  0.38843205  0.98961224  0.73615750     0.09800
H267        H  0.35576225  0.94664488  0.80634946     0.14300
H268        H  0.39493000  0.03002022  0.76754383     0.00000
H269        H  0.29508673  0.99627204  0.75293389     0.14600
H270        H  0.36975908  0.94911868  0.71425154     0.14400
C271        C  0.73212388  0.33513989  0.96317303     0.86200
C272        C  0.75915921  0.35902236  0.96524573    -0.54100
C273        C  0.76331371  0.37135164  0.99380103     0.09100
C274        C  0.73993485  0.35784381  0.01829220     0.20000
C275        C  0.74123077  0.31111378  0.98752678    -0.54800
C276        C  0.74538676  0.32285184  0.01622182     0.09200
C277        C  0.70068685  0.35118419  0.97631699    -0.54300
C278        C  0.70468329  0.36284879  0.00512495     0.09800
H279        H  0.77375151  0.36570461  0.94539901     0.14300
H280        H  0.74272487  0.36741835  0.04178631     0.00000
H281        H  0.74307678  0.28678156  0.98273506     0.14600
H282        H  0.67683887  0.35315738  0.96483515     0.14400
C283        C  0.24998470  0.64362688  0.01873970     0.86200
C284        C  0.28156212  0.62580729  0.00825635    -0.54100
C285        C  0.27765465  0.60916219  0.98191800     0.09100
C286        C  0.24234534  0.61164680  0.96839199     0.20000
C287        C  0.24064985  0.66288134  0.99005848    -0.54800
C288        C  0.23666621  0.64599634  0.96399269     0.09200
C289        C  0.22279223  0.61983336  0.02091529    -0.54300
C290        C  0.21837018  0.60328484  0.99458967     0.09800
H291        H  0.30555227  0.62761900  0.01956660     0.14300
H292        H  0.23927424  0.59825799  0.94688798     0.00000
H293        H  0.24072080  0.68759690  0.98919319     0.14600
H294        H  0.20691853  0.61776255  0.04104393     0.14400
C295        C  0.14862988  0.52591046  0.75328187     0.86200
C296        C  0.12328959  0.52323121  0.77981212    -0.54100
C297        C  0.10511896  0.49722411  0.77941284     0.09100
C298        C  0.11319445  0.47653366  0.75120429     0.20000
C299        C  0.16944463  0.49616858  0.75407022    -0.54800
C300        C  0.15125424  0.47031447  0.75297098     0.09200
C301        C  0.12690167  0.52327870  0.72425505    -0.54300
C302        C  0.10883515  0.49737665  0.72265447     0.09800
H303        H  0.11974194  0.54028341  0.79768008     0.14300
H304        H  0.09820713  0.45562430  0.75031142     0.00000
H305        H  0.19653804  0.49580363  0.75406303     0.14600
H306        H  0.12648567  0.53997776  0.70585159     0.14400
C307        C  0.72865157  0.16660980  0.45473898     0.86200
C308        C  0.69746474  0.14699231  0.46061769    -0.54100
C309        C  0.70161166  0.12614852  0.48382371     0.09100
C310        C  0.73624098  0.12633685  0.49854334     0.20000
C311        C  0.73602969  0.18038697  0.48626375    -0.54800
C312        C  0.73949903  0.15942891  0.50912817     0.09200
C313        C  0.75719619  0.14303797  0.44902353    -0.54300
C314        C  0.76195621  0.12219660  0.47210799     0.09800
H315        H  0.67376613  0.14968610  0.44895242     0.14300
H316        H  0.73845989  0.10958752  0.51755837     0.00000
H317        H  0.73602017  0.20482371  0.49057858     0.14600
H318        H  0.77400407  0.14482824  0.42958993     0.14400
C319        C  0.01224951  0.78411245  0.41321904     0.86200
C320        C  0.98026640  0.78912108  0.39471926    -0.54100
C321        C  0.97273810  0.76609581  0.37519385     0.09100
C322        C  0.99870853  0.73903224  0.37613499     0.20000
C323        C  0.00792935  0.75330409  0.42981523    -0.54800
C324        C  0.00162878  0.72929562  0.41033543     0.09200
C325        C  0.03971964  0.77666639  0.38956724    -0.54300
C326        C  0.03262767  0.75350770  0.37000930     0.09800
H327        H  0.96432423  0.80938559  0.39756500     0.14300
H328        H  0.99348118  0.72018172  0.35991388     0.00000
H329        H  0.01248087  0.75008305  0.45418501     0.14600
H330        H  0.06350643  0.78795357  0.38894200     0.14400
Zr331      Zr  0.29151068  0.72384116  0.20758998     2.17500
O332        O  0.34522107  0.69891351  0.19547655    -0.51700
O333        O  0.27915299  0.70465539  0.15579304    -0.74900
O334        O  0.29761479  0.67180219  0.22739899    -0.81600
O335        O  0.33091771  0.80171077  0.18963891    -0.83400
O336        O  0.25234486  0.65966644  0.25590963    -0.79000
O337        O  0.34106124  0.75051481  0.19316673    -0.90600
O338        O  0.22855743  0.72418074  0.14185122    -0.76600
O339        O  0.23395616  0.71216261  0.20733003    -0.86100
O340        O  0.26454756  0.76622681  0.18259146    -0.85800
O341        O  0.27739875  0.71929883  0.26122390    -0.72500
O342        O  0.30320215  0.76907965  0.23674263    -0.84700
Zr343      Zr  0.20217412  0.79488306  0.26503565     2.26400
Zr344      Zr  0.21905092  0.70792045  0.26070065     2.06300
Zr345      Zr  0.27527138  0.81151526  0.21207500     2.10000
Zr346      Zr  0.20692990  0.75508969  0.18328257     1.78800
O347        O  0.31496729  0.84850422  0.23030786    -0.93500
O348        O  0.16327671  0.71896898  0.17252465    -0.41300
O349        O  0.21705102  0.80070798  0.21192156    -0.77900
O350        O  0.19022564  0.74988339  0.23566918    -0.96600
O351        O  0.23001679  0.75305804  0.28986951    -0.89900
O352        O  0.25975731  0.80669884  0.26500129    -0.92800
C353        C  0.25502770  0.70814020  0.13654829     1.01000
C354        C  0.34991435  0.77766496  0.18683205     1.13900
C355        C  0.28114528  0.65311152  0.24390453     1.04700
O356        O  0.18013676  0.67320414  0.23714890    -0.94900
O357        O  0.16686466  0.71777715  0.28933947    -0.90700
O358        O  0.15657123  0.76921809  0.28959786    -0.83800
C359        C  0.14884687  0.74172225  0.29599560     1.11300
O360        O  0.34696965  0.75293339  0.29406794    -0.96900
Zr361      Zr  0.28739813  0.76482147  0.28953500     1.88900
O362        O  0.20976762  0.80879692  0.31874271    -0.73500
O363        O  0.21967774  0.68223517  0.31039329    -0.52800
O364        O  0.29637330  0.72490573  0.32782660    -0.97500
O365        O  0.32193593  0.80643206  0.30701278    -0.54700
O366        O  0.25779416  0.78477483  0.33404593    -0.74100
C367        C  0.23114002  0.80074340  0.33933664     0.98300
O368        O  0.14739913  0.81922616  0.25646461    -0.62900
O369        O  0.26935585  0.83466378  0.16140128    -0.57700
O370        O  0.20529146  0.85017446  0.25951845    -0.94400
O371        O  0.24459952  0.86048793  0.22334378    -0.92800
O372        O  0.20909025  0.78585159  0.13680983    -0.93100
O373        O  0.15346638  0.78109569  0.17399894    -0.91900
C374        C  0.22121622  0.86882993  0.24244658     1.17100
H375        H  0.27271178  0.76814879  0.16177514     0.33100
H376        H  0.16650603  0.74657493  0.23553579     0.43900
H377        H  0.26351862  0.82537993  0.27617463     0.37500
H378        H  0.29049236  0.70373191  0.27163373     0.33900
H379        H  0.15705456  0.72279224  0.15081456     0.25700
H380        H  0.20537933  0.66438003  0.30753918     0.31700
H381        H  0.27437568  0.72271172  0.33785699     0.37600
H382        H  0.20896240  0.80721329  0.14426479     0.32000
H383        H  0.28419800  0.85234103  0.16195672     0.30900
H384        H  0.32186712  0.85961916  0.21164652     0.32600
H385        H  0.30756750  0.81907201  0.32084552     0.31600
H386        H  0.15021385  0.79489832  0.19187015     0.35600
H387        H  0.15040040  0.83354126  0.23916535     0.28300
H388        H  0.34009058  0.67974725  0.18456485     0.32500
H389        H  0.35169344  0.75225034  0.31641091     0.35400
H390        H  0.28055161  0.82012125  0.14701096     0.28000
H391        H  0.13350935  0.80310621  0.24754206     0.40900
H392        H  0.16108557  0.68646566  0.23059844     0.30900
H393        H  0.17491520  0.69875432  0.17210323     0.38500
H394        H  0.32509030  0.81928222  0.28859895     0.30400
H395        H  0.24253537  0.67344466  0.31274123     0.30400
H396        H  0.35496655  0.69241764  0.21540955     0.30700
C397        C  0.23155487  0.84810452  0.46371509     0.86200
C398        C  0.26122100  0.86924831  0.46139503    -0.54100
C399        C  0.26849005  0.88465848  0.48772186     0.09100
C400        C  0.24455090  0.87734814  0.51462470     0.20000
C401        C  0.23989884  0.82701151  0.49126064    -0.54800
C402        C  0.24672138  0.84244638  0.51782005     0.09200
C403        C  0.20227869  0.86805758  0.47584040    -0.54300
C404        C  0.20886104  0.88326667  0.50250157     0.09800
H405        H  0.27654741  0.87008322  0.44081360     0.14300
H406        H  0.24949485  0.88965577  0.53642898     0.00000
H407        H  0.23743616  0.80245042  0.49113244     0.14600
H408        H  0.17779528  0.86880840  0.46517037     0.14400
C409        C  0.88179518  0.51250282  0.27646822     0.86200
C410        C  0.86266500  0.48286759  0.27714782    -0.54100
C411        C  0.84143433  0.47864413  0.25322955     0.09100
C412        C  0.84094741  0.50587882  0.22998470     0.20000
C413        C  0.89915084  0.51240587  0.24446548    -0.54800
C414        C  0.87786468  0.50943619  0.21975378     0.09200
C415        C  0.85511926  0.53796696  0.27362576    -0.54300
C416        C  0.83358654  0.53495168  0.24966452     0.09800
H417        H  0.86662426  0.46582293  0.29498184     0.14300
H418        H  0.82286047  0.50351470  0.21098291     0.00000
H419        H  0.92562391  0.51553417  0.24134814     0.14600
H420        H  0.85450724  0.55791126  0.28855250     0.14400
Zr421      Zr  0.77513640  0.29094567  0.20424739     2.17500
O422        O  0.76964210  0.33339364  0.16816804    -0.51700
O423        O  0.83232822  0.28055654  0.18854471    -0.74900
O424        O  0.79415789  0.33939355  0.22447255    -0.81600
O425        O  0.73775112  0.23962080  0.14113307    -0.83400
O426        O  0.78266947  0.34148533  0.27558874    -0.79000
O427        O  0.76643689  0.28266828  0.15067999    -0.90600
O428        O  0.85177395  0.23860032  0.21411844    -0.76600
O429        O  0.80030769  0.27573792  0.25138784    -0.86100
O430        O  0.78217681  0.23692584  0.19955779    -0.85800
O431        O  0.73597111  0.30796665  0.24258889    -0.72500
O432        O  0.72111337  0.27055723  0.19459671    -0.84700
Zr433      Zr  0.71311804  0.21805030  0.27673213     2.26400
Zr434      Zr  0.76051211  0.29115317  0.29035077     2.06300
Zr435      Zr  0.72829892  0.21585837  0.19150528     2.10000
Zr436      Zr  0.80664697  0.22163713  0.24683482     1.78800
O437        O  0.68198884  0.20477268  0.15748205    -0.93500
O438        O  0.85080092  0.23146568  0.28367441    -0.41300
O439        O  0.75263797  0.20028367  0.23912655    -0.77900
O440        O  0.76791300  0.23668724  0.28636703    -0.96600
O441        O  0.70615718  0.27183586  0.28119003    -0.89900
O442        O  0.68865301  0.23295918  0.22933832    -0.92800
C443        C  0.85469151  0.25993568  0.19424855     1.01000
C444        C  0.75291582  0.26374010  0.13249874     1.13900
C445        C  0.79319571  0.35361986  0.25033898     1.04700
O446        O  0.81040292  0.29737512  0.32132109    -0.94900
O447        O  0.74824946  0.26585110  0.34027070    -0.90700
O448        O  0.71033112  0.22952079  0.33015087    -0.83800
C449        C  0.72804110  0.24482781  0.34863021     1.11300
O450        O  0.67105193  0.32534766  0.19407757    -0.96900
Zr451      Zr  0.68255146  0.28707771  0.23341117     1.88900
O452        O  0.65473549  0.22738324  0.28892004    -0.73500
O453        O  0.72953258  0.32941627  0.32041935    -0.52800
O454        O  0.66646902  0.33616481  0.25617136    -0.97500
O455        O  0.63242303  0.27660308  0.20396017    -0.54700
O456        O  0.64112130  0.27472382  0.27113535    -0.74100
C457        C  0.63516709  0.25092365  0.28693194     0.98300
O458        O  0.72662847  0.17423708  0.30945528    -0.62900
O459        O  0.76508954  0.17760119  0.16735708    -0.57700
O460        O  0.68924384  0.17174918  0.25815068    -0.94400
O461        O  0.70314124  0.16686445  0.20759750    -0.92800
O462        O  0.82742190  0.17757454  0.21757486    -0.93100
O463        O  0.81761911  0.17658297  0.27830811    -0.91900
C464        C  0.69007764  0.15684443  0.23279082     1.17100
H465        H  0.79640218  0.23139150  0.18235745     0.33100
H466        H  0.77640839  0.22827063  0.30538853     0.43900
H467        H  0.66742554  0.22349712  0.22633255     0.37500
H468        H  0.73301768  0.32988628  0.24211043     0.33900
H469        H  0.85447748  0.25365799  0.28219121     0.25700
H470        H  0.71179667  0.31806244  0.33091822     0.31700
H471        H  0.67247500  0.33413299  0.27816391     0.37600
H472        H  0.85170345  0.17646208  0.22171384     0.32000
H473        H  0.75010221  0.16131478  0.16059966     0.30900
H474        H  0.66921651  0.22434071  0.15583050     0.32600
H475        H  0.62222483  0.25893496  0.21411080     0.31600
H476        H  0.79702464  0.16470802  0.27681472     0.35600
H477        H  0.73600116  0.15836075  0.29541481     0.28300
H478        H  0.79241198  0.34114385  0.16530600     0.32500
H479        H  0.69264491  0.33531317  0.19084008     0.35400
H480        H  0.77269613  0.18707606  0.14801720     0.28000
H481        H  0.74608339  0.18036697  0.32179403     0.40900
H482        H  0.81500701  0.27700697  0.33039248     0.30900
H483        H  0.84036733  0.22883455  0.30412763     0.38500
H484        H  0.64080734  0.26846484  0.18404791     0.30400
H485        H  0.74502207  0.33507017  0.33706850     0.30400
H486        H  0.75699217  0.34988835  0.17904898     0.30700
C487        C  0.59593369  0.00832230  0.29239617     0.86200
C488        C  0.61640674  0.03756057  0.28870384    -0.54100
C489        C  0.63592131  0.03866191  0.26282099     0.09100
C490        C  0.63509594  0.00891787  0.24373073     0.20000
C491        C  0.57755120  0.00523028  0.26146738    -0.54800
C492        C  0.59774888  0.00599595  0.23600046     0.09200
C493        C  0.62295213  0.98259768  0.29184437    -0.54300
C494        C  0.64366058  0.98230857  0.26655750     0.09800
H495        H  0.61529315  0.05654497  0.30468142     0.14300
H496        H  0.65114998  0.00929883  0.22292353     0.00000
H497        H  0.55056712  0.00435283  0.25985024     0.14600
H498        H  0.62476054  0.96543923  0.30970423     0.14400
C499        C  0.48331953  0.21770781  0.92669303     0.86200
C500        C  0.50916564  0.20735585  0.90235873    -0.54100
C501        C  0.51367742  0.22771049  0.87916044     0.09100
C502        C  0.49010463  0.25614548  0.88141450     0.20000
C503        C  0.49421492  0.24952974  0.93690556    -0.54800
C504        C  0.49736029  0.26965680  0.91321599     0.09200
C505        C  0.45116137  0.22382020  0.90790652    -0.54300
C506        C  0.45460862  0.24418881  0.88454352     0.09800
H507        H  0.52469212  0.18682008  0.90480892     0.14300
H508        H  0.49268838  0.27265733  0.86227889     0.00000
H509        H  0.49757680  0.25594524  0.96082825     0.14600
H510        H  0.42745742  0.21332615  0.91194077     0.14400
Zr511      Zr  0.19529284  0.27381442  0.72321594     2.17500
O512        O  0.13847862  0.29498949  0.72694369    -0.51700
O513        O  0.20372292  0.28862613  0.67079417    -0.74900
O514        O  0.19408808  0.32873603  0.72972770    -0.81600
O515        O  0.15888994  0.19506835  0.70644485    -0.83400
O516        O  0.23689930  0.34217371  0.76055313    -0.79000
O517        O  0.14981542  0.24644790  0.70184970    -0.90600
O518        O  0.25409407  0.26847015  0.65648041    -0.76600
O519        O  0.25257533  0.28634731  0.72082101    -0.86100
O520        O  0.22283965  0.23038023  0.70050990    -0.85800
O521        O  0.21043814  0.28465796  0.77509930    -0.72500
O522        O  0.18296446  0.23120743  0.75488401    -0.84700
Zr523      Zr  0.28425519  0.21096211  0.78470555     2.26400
Zr524      Zr  0.26893293  0.29565854  0.77283973     2.06300
Zr525      Zr  0.21251065  0.18790543  0.73342519     2.10000
Zr526      Zr  0.28013130  0.24255907  0.69944369     1.78800
O527        O  0.17644198  0.15190484  0.75890456    -0.93500
O528        O  0.31989004  0.28059787  0.68361271    -0.41300
O529        O  0.27002080  0.20045689  0.73248994    -0.77900
O530        O  0.29757580  0.25210892  0.75110378    -0.96600
O531        O  0.25599009  0.25437450  0.80569236    -0.89900
O532        O  0.22703540  0.19768416  0.78586910    -0.92800
C533        C  0.22719131  0.28407431  0.65126014     1.01000
C534        C  0.14143155  0.21875516  0.69807901     1.13900
C535        C  0.21057650  0.34855589  0.74468688     1.04700
O536        O  0.30821539  0.32859533  0.74724072    -0.94900
O537        O  0.32075830  0.28766165  0.80269976    -0.90700
O538        O  0.32888091  0.23647369  0.80966349    -0.83800
C539        C  0.33726249  0.26419445  0.81307888     1.11300
O540        O  0.13898143  0.25318987  0.80607893    -0.96900
Zr541      Zr  0.19877598  0.24174117  0.80634193     1.88900
O542        O  0.27618037  0.20447080  0.83978832    -0.73500
O543        O  0.26637617  0.32693725  0.81922506    -0.52800
O544        O  0.18056346  0.28261986  0.84107067    -0.97500
O545        O  0.17152941  0.19907934  0.83077245    -0.54700
O546        O  0.22982199  0.23254913  0.85231114    -0.74100
C547        C  0.25586337  0.21673038  0.85945203     0.98300
O548        O  0.33903984  0.18694159  0.77496831    -0.62900
O549        O  0.21608188  0.15666105  0.68699443    -0.57700
O550        O  0.28417520  0.15621830  0.78267469    -0.94400
O551        O  0.25221135  0.14468206  0.74152373    -0.92800
O552        O  0.28278413  0.20291303  0.66005799    -0.93100
O553        O  0.33626698  0.22149367  0.69107165    -0.91900
C554        C  0.27490683  0.13788521  0.76160727     1.17100
H555        H  0.21456867  0.22644671  0.68007458     0.33100
H556        H  0.32134773  0.25508155  0.75094962     0.43900
H557        H  0.22384420  0.18000348  0.79868418     0.37500
H558        H  0.19755112  0.30185810  0.78305465     0.33900
H559        H  0.30620622  0.29934127  0.67977556     0.25700
H560        H  0.27708472  0.34619382  0.81343376     0.31700
H561        H  0.20141697  0.29241903  0.84744792     0.37600
H562        H  0.28126163  0.18351228  0.67153988     0.32000
H563        H  0.19993159  0.14030442  0.69037844     0.30900
H564        H  0.19158747  0.13911742  0.77176273     0.32600
H565        H  0.15556462  0.19181866  0.81521155     0.31600
H566        H  0.33696966  0.20216979  0.70282412     0.35600
H567        H  0.33616946  0.17406457  0.75645557     0.28300
H568        H  0.13624699  0.30992930  0.70998491     0.32500
H569        H  0.13565100  0.26777900  0.78894823     0.35400
H570        H  0.20606531  0.16942254  0.67049547     0.28000
H571        H  0.35321671  0.20353529  0.76748770     0.40900
H572        H  0.31401913  0.34387380  0.76302728     0.30900
H573        H  0.33259272  0.28526957  0.70247037     0.38500
H574        H  0.15737398  0.20848535  0.84711738     0.30400
H575        H  0.24246078  0.33261952  0.82180621     0.30400
H576        H  0.13776237  0.30736764  0.74603584     0.30700
C577        C  0.99507743  0.28451047  0.59788446     0.86200
C578        C  0.02730843  0.27440261  0.61512482    -0.54100
C579        C  0.02358190  0.24964536  0.63357548     0.09100
C580        C  0.98830885  0.23728325  0.63367368     0.20000
C581        C  0.98451489  0.25526935  0.58078430    -0.54800
C582        C  0.98161775  0.23041388  0.59969145     0.09200
C583        C  0.96908366  0.28911838  0.62358376    -0.54300
C584        C  0.96443036  0.26423338  0.64160318     0.09800
H585        H  0.05125273  0.28503930  0.61343923     0.14300
H586        H  0.98570355  0.21737571  0.64918549     0.00000
H587        H  0.98185781  0.25395007  0.55597568     0.14600
H588        H  0.95278086  0.30926223  0.62479504     0.14400
C589        C  0.00390095  0.22144614  0.07585217     0.86200
C590        C  0.97142136  0.22314328  0.09486172    -0.54100
C591        C  0.96838013  0.24838069  0.11331317     0.09100
C592        C  0.99828479  0.26953004  0.11114080     0.20000
C593        C  0.00487719  0.25133668  0.05836049    -0.54800
C594        C  0.00192629  0.27660333  0.07643700     0.09200
C595        C  0.03126077  0.22341583  0.10048468    -0.54300
C596        C  0.02835185  0.24850121  0.11902984     0.09800
H597        H  0.95316416  0.20531516  0.09503714     0.14300
H598        H  0.99582181  0.29000391  0.12609182     0.00000
H599        H  0.00653775  0.25231067  0.03342657     0.14600
H600        H  0.05050758  0.20590674  0.10400446     0.14400
Zr601      Zr  0.04188511  0.03957511  0.04558584     2.17500
O602        O  0.02773514  0.07480414  0.08744304    -0.51700
O603        O  0.09843215  0.05599900  0.03835158    -0.74900
O604        O  0.06601734  0.02254200  0.09408711    -0.81600
O605        O  0.00097633  0.09763851  0.99045365    -0.83400
O606        O  0.05726924  0.97168747  0.09778585    -0.79000
O607        O  0.03351214  0.09235337  0.03311946    -0.90600
O608        O  0.11869006  0.03246711  0.99546607    -0.76600
O609        O  0.07043074  0.99315153  0.03245128    -0.86100
O610        O  0.04951340  0.04242679  0.99128131    -0.85800
O611        O  0.00504590  0.00086785  0.06256804    -0.72500
O612        O  0.98743268  0.04608775  0.02330856    -0.84700
Zr613      Zr  0.98750007  0.96268397  0.97087741     2.26400
Zr614      Zr  0.03337021  0.95402484  0.04810820     2.06300
Zr615      Zr  0.99528237  0.04723520  0.96845343     2.10000
Zr616      Zr  0.07779879  0.99601972  0.97812000     1.78800
O617        O  0.94814853  0.08182254  0.95793347    -0.93500
O618        O  0.12711568  0.96444601  0.98967173    -0.41300
O619        O  0.02414136  0.00106007  0.95380541    -0.77900
O620        O  0.04201109  0.95572885  0.99326623    -0.96600
O621        O  0.97921477  0.95989301  0.02517101    -0.89900
O622        O  0.95857922  0.00860998  0.98448710    -0.92800
C623        C  0.12090463  0.05174574  0.01766836     1.01000
C624        C  0.01700941  0.10823643  0.01343318     1.13900
C625        C  0.06753776  0.99723839  0.10891167     1.04700
O626        O  0.08467923  0.92371999  0.05436349    -0.94900
O627        O  0.02069900  0.90290468  0.02740567    -0.90700
O628        O  0.98899634  0.91008461  0.98444571    -0.83800
C629        C  0.00336163  0.89314096  0.00452656     1.11300
O630        O  0.93552291  0.03823527  0.08276057    -0.96900
Zr631      Zr  0.95134598  0.00650866  0.03876791     1.88900
O632        O  0.93000697  0.94960406  0.97715485    -0.73500
O633        O  0.00575998  0.92606439  0.08883747    -0.52800
O634        O  0.93112747  0.97850656  0.08305217    -0.97500
O635        O  0.90654526  0.04356110  0.02777588    -0.54700
O636        O  0.90822315  0.97456950  0.01864584    -0.74100
C637        C  0.90626908  0.95586309  0.99608418     0.98300
O638        O  0.00234504  0.93005927  0.92701890    -0.62900
O639        O  0.02818830  0.07039042  0.92800555    -0.57700
O640        O  0.96308221  0.97980028  0.92249343    -0.94400
O641        O  0.96575192  0.03142745  0.92155228    -0.92800
O642        O  0.09191801  0.02226809  0.93073537    -0.93100
O643        O  0.09502782  0.96084289  0.93723357    -0.91900
C644        C  0.95731775  0.00576768  0.90964942     1.17100
H645        H  0.06236558  0.05983659  0.98552746     0.33100
H646        H  0.05198563  0.93660818  0.98632666     0.43900
H647        H  0.93733187  0.01071777  0.97416253     0.37500
H648        H  0.00207654  0.00196817  0.08460146     0.33900
H649        H  0.14583170  0.97509771  0.97987903     0.25700
H650        H  0.02412398  0.91599747  0.10052854     0.31700
H651        H  0.93365079  0.95673954  0.07713241     0.37600
H652        H  0.11546064  0.02800794  0.93330470     0.32000
H653        H  0.01143812  0.07918631  0.91361379     0.30900
H654        H  0.92825872  0.06897417  0.95913372     0.32600
H655        H  0.89080870  0.03275324  0.01434194     0.31600
H656        H  0.07480807  0.94928683  0.93244518     0.35600
H657        H  0.01323505  0.94366932  0.91212277     0.28300
H658        H  0.04929996  0.08045359  0.09662219     0.32500
H659        H  0.95519001  0.05087156  0.08656886     0.35400
H660        H  0.03823710  0.08835343  0.93781415     0.28000
H661        H  0.02079428  0.91645493  0.93427144     0.40900
H662        H  0.07986641  0.90953045  0.07139400     0.30900
H663        H  0.13070820  0.96712899  0.01202827     0.38500
H664        H  0.91684838  0.05873820  0.01416621     0.30400
H665        H  0.99666885  0.94202143  0.10293568     0.30400
H666        H  0.01676145  0.06234322  0.10329018     0.30700
Zr667      Zr  0.20635855  0.23143346  0.22599601     2.17500
O668        O  0.20492752  0.18915612  0.18929387    -0.51700
O669        O  0.14823373  0.23905666  0.21215253    -0.74900
O670        O  0.19140904  0.18283336  0.24807040    -0.81600
O671        O  0.24812096  0.27635063  0.16067393    -0.83400
O672        O  0.19971527  0.18349176  0.29958879    -0.79000
O673        O  0.22046878  0.23338791  0.17271922    -0.90600
O674        O  0.13008637  0.28554503  0.22907127    -0.76600
O675        O  0.18022143  0.24877733  0.27210168    -0.86100
O676        O  0.19810283  0.28489763  0.21765093    -0.85800
O677        O  0.24580086  0.21757487  0.26529031    -0.72500
O678        O  0.26003296  0.25204057  0.21536156    -0.84700
Zr679      Zr  0.26462617  0.31029099  0.29473987     2.26400
Zr680      Zr  0.21980133  0.23604230  0.31198564     2.06300
Zr681      Zr  0.25199352  0.30614178  0.20881406     2.10000
Zr682      Zr  0.17263741  0.30244840  0.26416435     1.78800
O683        O  0.29980140  0.31447936  0.17553470    -0.93500
O684        O  0.12328700  0.29259316  0.29503810    -0.41300
O685        O  0.22596308  0.32455426  0.25515758    -0.77900
O686        O  0.21063492  0.29004839  0.30487990    -0.96600
O687        O  0.27359770  0.25678138  0.30203993    -0.89900
O688        O  0.29077269  0.29331724  0.24854015    -0.92800
C689        C  0.12654031  0.26101457  0.21350471     1.01000
C690        C  0.23528172  0.25053209  0.15367880     1.13900
C691        C  0.19093255  0.16981891  0.27440599     1.04700
O692        O  0.16825547  0.23213638  0.34123423    -0.94900
O693        O  0.23108815  0.26530276  0.36042217    -0.90700
O694        O  0.26595800  0.30372258  0.34886035    -0.83800
C695        C  0.24903320  0.28842270  0.36793585     1.11300
O696        O  0.30949026  0.19441939  0.22369058    -0.96900
Zr697      Zr  0.29858183  0.23973164  0.25511997     1.88900
O698        O  0.32274282  0.30439151  0.30926322    -0.73500
O699        O  0.24861188  0.20008359  0.34606063    -0.52800
O700        O  0.32292782  0.19769211  0.28476009    -0.97500
O701        O  0.34310577  0.24749696  0.21782347    -0.54700
O702        O  0.34231192  0.26166742  0.28489042    -0.74100
C703        C  0.34578205  0.28453731  0.30280263     0.98300
O704        O  0.24798815  0.35585807  0.32414541    -0.62900
O705        O  0.21857698  0.34213868  0.17840449    -0.57700
O706        O  0.28652873  0.35653317  0.27387337    -0.94400
O707        O  0.27688818  0.35602909  0.22249453    -0.92800
O708        O  0.15518468  0.34862460  0.23692581    -0.93100
O709        O  0.15898195  0.34333409  0.30051862    -0.91900
C710        C  0.28765786  0.36898183  0.24731093     1.17100
H711        H  0.18424616  0.28883449  0.19990256     0.33100
H712        H  0.20136318  0.29917941  0.32334975     0.43900
H713        H  0.31166397  0.30330971  0.24530573     0.37500
H714        H  0.24974184  0.19578386  0.26611478     0.33900
H715        H  0.10506814  0.30470508  0.28517394     0.25700
H716        H  0.26168398  0.18646625  0.33206681     0.31700
H717        H  0.34735189  0.19988310  0.28267745     0.37600
H718        H  0.13049209  0.34863739  0.23748868     0.32000
H719        H  0.20213698  0.32964023  0.16748232     0.30900
H720        H  0.29276755  0.33186509  0.16234122     0.32600
H721        H  0.36226622  0.23511363  0.22567069     0.31600
H722        H  0.17643033  0.35855521  0.29726426     0.35600
H723        H  0.23778640  0.37007662  0.30897899     0.28300
H724        H  0.18198829  0.18136911  0.19002521     0.32500
H725        H  0.28806262  0.18372634  0.22316504     0.35400
H726        H  0.20527388  0.35399407  0.19373107     0.28000
H727        H  0.22886463  0.34980078  0.33700985     0.40900
H728        H  0.16191339  0.25348151  0.34662564     0.30900
H729        H  0.11795792  0.27110027  0.29060679     0.38500
H730        H  0.34988220  0.26885846  0.22069671     0.30400
H731        H  0.26560580  0.21219979  0.35670181     0.30400
H732        H  0.21951144  0.17257726  0.19763683     0.30700
C733        C  0.10605278  0.00635276  0.29319459     0.86200
C734        C  0.12372852  0.03682593  0.29552271    -0.54100
C735        C  0.14558350  0.04273356  0.27237642     0.09100
C736        C  0.14853218  0.01590425  0.24823904     0.20000
C737        C  0.09039214  0.00606324  0.26083079    -0.54800
C738        C  0.11232596  0.01047380  0.23698206     0.09200
C739        C  0.13493440  0.98246673  0.29083630    -0.54300
C740        C  0.15708497  0.98658424  0.26731852     0.09800
H741        H  0.11849299  0.05315685  0.31387882     0.14300
H742        H  0.16657529  0.01985561  0.22937010     0.00000
H743        H  0.06422966  0.00145415  0.25713745     0.14600
H744        H  0.13695526  0.96230647  0.30490296     0.14400
Zr745      Zr  0.94580621  0.03478059  0.54479017     2.17500
O746        O  0.88933801  0.03423019  0.56591675    -0.51700
O747        O  0.95355330  0.08797830  0.55974536    -0.74900
O748        O  0.94267880  0.02481361  0.60000424    -0.81600
O749        O  0.90887849  0.05132110  0.46439775    -0.83400
O750        O  0.98127625  0.98808857  0.61248440    -0.79000
O751        O  0.89965785  0.05568701  0.51573604    -0.90600
O752        O  0.00644144  0.09928229  0.54586067    -0.76600
O753        O  0.00262399  0.03369884  0.56042373    -0.86100
O754        O  0.97468865  0.05844455  0.50350267    -0.85800
O755        O  0.95983904  0.98154306  0.55154050    -0.72500
O756        O  0.93546857  0.00483590  0.49949737    -0.84700
Zr757      Zr  0.03726912  0.97495887  0.48088558     2.26400
Zr758      Zr  0.01755743  0.98059849  0.56668524     2.06300
Zr759      Zr  0.96521765  0.02839966  0.45828608     2.10000
Zr760      Zr  0.03161788  0.05664447  0.51888781     1.78800
O761        O  0.92867379  0.01331377  0.41656603    -0.93500
O762        O  0.07102709  0.06658476  0.56007082    -0.41300
O763        O  0.02268275  0.02762369  0.47313223    -0.77900
O764        O  0.04830161  0.00460887  0.52610116    -0.96600
O765        O  0.00812227  0.95075660  0.52135188    -0.89900
O766        O  0.98064240  0.97554585  0.46478347    -0.92800
C767        C  0.97816325  0.10607202  0.55803973     1.01000
C768        C  0.89059414  0.05917058  0.48772128     1.13900
C769        C  0.95609887  0.00595270  0.61920575     1.04700
O770        O  0.05260686  0.00154262  0.60671752    -0.94900
O771        O  0.07199132  0.95309223  0.56021557    -0.90700
O772        O  0.08341792  0.95245796  0.50883903    -0.83800
C773        C  0.09080350  0.94645779  0.53681559     1.11300
O774        O  0.89216069  0.94807393  0.51763595    -0.96900
Zr775      Zr  0.95137330  0.95217451  0.50580075     1.88900
O776        O  0.02998232  0.92182355  0.46759539    -0.73500
O777        O  0.01457865  0.93120558  0.59194589    -0.52800
O778        O  0.94090092  0.91330968  0.54435148    -0.97500
O779        O  0.91914504  0.93674960  0.46104140    -0.54700
O780        O  0.98073793  0.90664464  0.48740855    -0.74100
C781        C  0.00842368  0.90149707  0.47331729     0.98300
O782        O  0.08990640  0.97746057  0.45275957    -0.62900
O783        O  0.97156914  0.07903385  0.43646070    -0.57700
O784        O  0.04014261  0.98401274  0.42622198    -0.94400
O785        O  0.99996369  0.01852957  0.41193024    -0.92800
O786        O  0.03935355  0.10021758  0.48518071    -0.93100
O787        O  0.08754535  0.06307869  0.49839412    -0.91900
C788        C  0.02555045  0.00089686  0.40603583     1.17100
H789        H  0.96663827  0.07915347  0.50023541     0.33100
H790        H  0.07182899  0.00461602  0.53078522     0.43900
H791        H  0.97841786  0.96437828  0.44571172     0.37500
H792        H  0.94597153  0.97298099  0.56733350     0.33900
H793        H  0.07146924  0.08911188  0.56164949     0.25700
H794        H  0.01812577  0.93553880  0.61404562     0.31700
H795        H  0.96201922  0.90115905  0.54574388     0.37600
H796        H  0.01861150  0.11284358  0.48718686     0.32000
H797        H  0.99588785  0.08234349  0.43699614     0.30900
H798        H  0.93605181  0.99222224  0.41122692     0.32600
H799        H  0.93553874  0.92812808  0.44609398     0.31600
H800        H  0.09346548  0.04323395  0.48860926     0.35600
H801        H  0.10578123  0.98722329  0.46688253     0.28300
H802        H  0.88855976  0.04937732  0.58287529     0.32500
H803        H  0.88641577  0.92689131  0.51221400     0.35400
H804        H  0.96642246  0.07653008  0.41434631     0.28000
H805        H  0.09821126  0.95607204  0.45058353     0.40900
H806        H  0.06132220  0.98347437  0.61805641     0.30900
H807        H  0.05967056  0.06013659  0.57912476     0.38500
H808        H  0.91109071  0.95614309  0.45168113     0.30400
H809        H  0.99080800  0.92584484  0.59055258     0.30400
H810        H  0.88704411  0.01411111  0.57590212     0.30700
C811        C  0.26000243  0.17724423  0.98517143     0.86200
C812        C  0.22850541  0.15787257  0.98530632    -0.54100
C813        C  0.22292600  0.14263845  0.01211515     0.09100
C814        C  0.24879669  0.14939270  0.03715310     0.20000
C815        C  0.25595095  0.19894080  0.01244161    -0.54800
C816        C  0.25003493  0.18467454  0.03959842     0.09200
C817        C  0.28799551  0.15473137  0.99491264    -0.54300
C818        C  0.28175403  0.13964628  0.02160323     0.09800
H819        H  0.21286972  0.15538473  0.96513797     0.14300
H820        H  0.24455876  0.13761992  0.05934948     0.00000
H821        H  0.25756073  0.22356553  0.01048199     0.14600
H822        H  0.30945594  0.14820616  0.98106195     0.14400
Zr823      Zr  0.45102975  0.04058323  0.98117240     2.17500
O824        O  0.42932626  0.07959662  0.94592688    -0.51700
O825        O  0.39395970  0.04724069  0.99949553    -0.74900
O826        O  0.43214346  0.02058709  0.93151925    -0.81600
O827        O  0.50051109  0.10326244  0.02440431    -0.83400
O828        O  0.44334015  0.96961036  0.92996902    -0.79000
O829        O  0.46372383  0.09391061  0.98592868    -0.90600
O830        O  0.39024677  0.03122206  0.04884586    -0.76600
O831        O  0.43325046  0.99280838  0.99962370    -0.86100
O832        O  0.45498432  0.04486328  0.03586765    -0.85800
O833        O  0.49032057  0.00454642  0.95874653    -0.72500
O834        O  0.50794444  0.05138505  0.99340247    -0.84700
Zr835      Zr  0.53273775  0.96920367  0.04521433     2.26400
Zr836      Zr  0.47266308  0.95628078  0.97823765     2.06300
Zr837      Zr  0.51212211  0.05394079  0.04847092     2.10000
Zr838      Zr  0.43758977  0.99676145  0.05426076     1.78800
O839        O  0.56330250  0.08246635  0.05140885    -0.93500
O840        O  0.39011389  0.96423882  0.04563445    -0.41300
O841        O  0.49444372  0.00597124  0.06751505    -0.77900
O842        O  0.47518699  0.95912998  0.03352218    -0.96600
O843        O  0.52990985  0.96590571  0.99061652    -0.89900
O844        O  0.55085162  0.01714775  0.02711304    -0.92800
C845        C  0.37875142  0.04540475  0.02537869     1.01000
C846        C  0.48154113  0.11176630  0.00204450     1.13900
C847        C  0.43179486  0.99457490  0.91775714     1.04700
O848        O  0.42129948  0.92798444  0.97973639    -0.94900
O849        O  0.48818787  0.90599910  0.99954721    -0.90700
O850        O  0.52012094  0.91559838  0.04154487    -0.83800
C851        C  0.50404068  0.89766849  0.02400012     1.11300
O852        O  0.54616908  0.04472010  0.92541779    -0.96900
Zr853      Zr  0.54646730  0.01448906  0.97242740     1.88900
O854        O  0.58932627  0.96140216  0.02547224    -0.73500
O855        O  0.49741627  0.92472238  0.93751259    -0.52800
O856        O  0.55947336  0.98155883  0.92844702    -0.97500
O857        O  0.58578370  0.05594849  0.97318604    -0.54700
O858        O  0.59905807  0.98966671  0.98310599    -0.74100
C859        C  0.60818336  0.97037218  0.00355134     0.98300
O860        O  0.55993575  0.93780642  0.08471718    -0.62900
O861        O  0.48374503  0.08550362  0.08718152    -0.57700
O862        O  0.54571003  0.98823155  0.09643788    -0.94400
O863        O  0.53880042  0.03978038  0.09773364    -0.92800
O864        O  0.42677854  0.01682663  0.10569168    -0.93100
O865        O  0.43519929  0.95875432  0.09492182    -0.91900
C866        C  0.54734058  0.01408566  0.11027061     1.17100
H867        H  0.44132629  0.06170297  0.04357212     0.33100
H868        H  0.46722471  0.94076848  0.04281782     0.43900
H869        H  0.57329588  0.02115624  0.03373529     0.37500
H870        H  0.49052910  0.00510573  0.93658199     0.33900
H871        H  0.37411530  0.96987295  0.06222314     0.25700
H872        H  0.47821020  0.91615927  0.92647198     0.31700
H873        H  0.56659629  0.96166720  0.93735931     0.37600
H874        H  0.42941058  0.03911858  0.10375169     0.32000
H875        H  0.47891540  0.07131829  0.10419684     0.30900
H876        H  0.56011471  0.09604149  0.06948113     0.32600
H877        H  0.60203226  0.05045192  0.98949741     0.31600
H878        H  0.45868056  0.95558154  0.10147007     0.35600
H879        H  0.54194213  0.92670022  0.09515135     0.28300
H880        H  0.40610603  0.07402169  0.94124409     0.32500
H881        H  0.56754952  0.03951827  0.91494556     0.35400
H882        H  0.50127371  0.09871196  0.09543795     0.28000
H883        H  0.57322661  0.92189665  0.07359572     0.40900
H884        H  0.41703402  0.92473727  0.00191282     0.30900
H885        H  0.37936575  0.97206765  0.02664067     0.38500
H886        H  0.57287571  0.07359548  0.98175683     0.30400
H887        H  0.50691362  0.93943960  0.92288333     0.30400
H888        H  0.44179305  0.07684103  0.92637324     0.30700
Zr889      Zr  0.52832211  0.04141250  0.48030159     2.17500
O890        O  0.57422847  0.06499229  0.45286919    -0.51700
O891        O  0.51402130  0.09477358  0.47042734    -0.74900
O892        O  0.53086517  0.02694074  0.42608431    -0.81600
O893        O  0.56904823  0.06463237  0.55194534    -0.83400
O894        O  0.49147166  0.99252520  0.41440669    -0.79000
O895        O  0.58097791  0.04251100  0.50639553    -0.90600
O896        O  0.46002288  0.10309436  0.48420226    -0.76600
O897        O  0.47043965  0.03869103  0.46952250    -0.86100
O898        O  0.50146362  0.06442330  0.52419076    -0.85800
O899        O  0.51898035  0.98787600  0.47330700    -0.72500
O900        O  0.54611687  0.01221269  0.52428236    -0.84700
Zr901      Zr  0.44992357  0.97879088  0.55111722     2.26400
Zr902      Zr  0.46035858  0.98524177  0.46338486     2.06300
Zr903      Zr  0.51920240  0.03512437  0.56811565     2.10000
Zr904      Zr  0.44350746  0.06029771  0.51390360     1.78800
O905        O  0.56256806  0.01397117  0.60154572    -0.93500
O906        O  0.39770793  0.06766202  0.47769221    -0.41300
O907        O  0.46043639  0.03196249  0.55835365    -0.77900
O908        O  0.43202648  0.00779989  0.50721597    -0.96600
O909        O  0.47700156  0.95617335  0.50762654    -0.89900
O910        O  0.50800797  0.98190373  0.56187969    -0.92800
C911        C  0.48724236  0.11134693  0.47192080     1.01000
C912        C  0.58837998  0.06046287  0.52831092     1.13900
C913        C  0.51625638  0.00936445  0.40698976     1.04700
O914        O  0.41887496  0.00426345  0.42683610    -0.94900
O915        O  0.40895169  0.95755909  0.47444627    -0.90700
O916        O  0.40523810  0.95174966  0.52633431    -0.83800
C917        C  0.39430471  0.94778530  0.49889388     1.11300
O918        O  0.59122039  0.96229231  0.49747275    -0.96900
Zr919      Zr  0.53481329  0.95935371  0.51814199     1.88900
O920        O  0.46430842  0.92636460  0.56506581    -0.73500
O921        O  0.46696318  0.93505873  0.43962835    -0.52800
O922        O  0.54455102  0.91906459  0.48024564    -0.97500
O923        O  0.57521932  0.94396326  0.55737875    -0.54700
O924        O  0.51257727  0.91330794  0.54015615    -0.74100
C925        C  0.48740767  0.90705293  0.55704786     0.98300
O926        O  0.39617186  0.98559730  0.57738799    -0.62900
O927        O  0.51683766  0.08242860  0.59778436    -0.57700
O928        O  0.45373587  0.98513491  0.60631738    -0.94400
O929        O  0.48726062  0.02506350  0.61645005    -0.92800
O930        O  0.43844335  0.10491114  0.54729271    -0.93100
O931        O  0.38924382  0.06514286  0.53899345    -0.91900
C932        C  0.46627459  0.00459871  0.62480258     1.17100
H933        H  0.50749680  0.08541299  0.52715528     0.33100
H934        H  0.40814202  0.00687603  0.50482731     0.43900
H935        H  0.51365926  0.97074374  0.58038456     0.37500
H936        H  0.53222402  0.97921004  0.45673650     0.33900
H937        H  0.39452372  0.09007081  0.47598316     0.25700
H938        H  0.46202767  0.92044279  0.45625446     0.31700
H939        H  0.52198765  0.91249905  0.47445511     0.37600
H940        H  0.44116385  0.09675714  0.56838316     0.32000
H941        H  0.53555186  0.08037618  0.61252397     0.30900
H942        H  0.57654301  0.03151388  0.60678629     0.32600
H943        H  0.56187775  0.93711079  0.57513072     0.31600
H944        H  0.38994172  0.04954195  0.55539518     0.35600
H945        H  0.39797038  0.00432714  0.59000432     0.28300
H946        H  0.56412060  0.07587420  0.43511136     0.32500
H947        H  0.60168194  0.94183741  0.50069242     0.35400
H948        H  0.52378872  0.09847018  0.58330648     0.28000
H949        H  0.38003525  0.99169781  0.56118028     0.40900
H950        H  0.43002142  0.02073248  0.41553805     0.30900
H951        H  0.40706067  0.06124774  0.45752444     0.38500
H952        H  0.58500348  0.96328680  0.56434584     0.30400
H953        H  0.44782863  0.93369474  0.42538481     0.30400
H954        H  0.58758244  0.04793030  0.44368070     0.30700
C955        C  0.48928582  0.22704118  0.40855146     0.86200
C956        C  0.51750771  0.22320855  0.38491639    -0.54100
C957        C  0.52148510  0.24789622  0.36647318     0.09100
C958        C  0.49680512  0.27439963  0.37319536     0.20000
C959        C  0.49693574  0.25647923  0.42622063    -0.54800
C960        C  0.50040033  0.28135017  0.40759521     0.09200
C961        C  0.45833937  0.23575140  0.38901057    -0.54300
C962        C  0.46263615  0.26051152  0.37089417     0.09800
H963        H  0.53355000  0.20288143  0.38353544     0.14300
H964        H  0.49965378  0.29447664  0.35797525     0.00000
H965        H  0.49722237  0.25785220  0.45116236     0.14600
H966        H  0.43475599  0.22442018  0.38880383     0.14400
Zr967      Zr  0.94936342  0.46549556  0.03346444     2.17500
O968        O  0.94809109  0.43327111  0.07917609    -0.51700
O969        O  0.89309325  0.44994700  0.02257857    -0.74900
O970        O  0.92530502  0.49016919  0.07894436    -0.81600
O971        O  0.99998119  0.40121156  0.99328853    -0.83400
O972        O  0.93974134  0.53984943  0.08014266    -0.79000
O973        O  0.96593921  0.41277407  0.03369842    -0.90600
O974        O  0.87626815  0.47387766  0.97903926    -0.76600
O975        O  0.92553982  0.51187653  0.01460610    -0.86100
O976        O  0.94577312  0.45701912  0.97921862    -0.85800
O977        O  0.98795390  0.50315353  0.04936021    -0.72500
O978        O  0.00484598  0.45433343  0.01506367    -0.84700
Zr979      Zr  0.01630667  0.53118804  0.95656532     2.26400
Zr980      Zr  0.96474872  0.54988198  0.02904982     2.06300
Zr981      Zr  0.00153709  0.44680379  0.96050092     2.10000
Zr982      Zr  0.92257135  0.50380815  0.96041141     1.78800
O983        O  0.04988195  0.41409863  0.94821446    -0.93500
O984        O  0.87756964  0.54208671  0.96506024    -0.41300
O985        O  0.97787676  0.49331587  0.94095875    -0.77900
O986        O  0.96049551  0.54292709  0.97435319    -0.96600
O987        O  0.02009703  0.53891603  0.01057234    -0.89900
O988        O  0.04008317  0.48479819  0.97539403    -0.92800
C989        C  0.87150446  0.45548113  0.00149969     1.01000
C990        C  0.98488090  0.39430219  0.01846271     1.13900
C991        C  0.92638808  0.51623487  0.09234422     1.04700
O992        O  0.91419830  0.58192470  0.03013474    -0.94900
O993        O  0.98103083  0.59742724  0.00339306    -0.90700
O994        O  0.01677597  0.58480681  0.96450723    -0.83800
C995        C  0.00062203  0.60430842  0.98095041     1.11300
O996        O  0.04977911  0.46191892  0.07616463    -0.96900
Zr997      Zr  0.04283814  0.49233588  0.02971109     1.88900
O998        O  0.07517203  0.54190464  0.96515659    -0.73500
O999        O  0.99253657  0.58085664  0.06732875    -0.52800
O1000       O  0.05971298  0.52396683  0.07279309    -0.97500
O1001       O  0.08844150  0.45471447  0.02473556    -0.54700
O1002       O  0.08856549  0.52201526  0.01167773    -0.74100
C1003       C  0.09552029  0.53745357  0.98766216     0.98300
O1004       O  0.00497642  0.56182324  0.91054966    -0.62900
O1005       O  0.96660010  0.41454323  0.92906722    -0.57700
O1006       O  0.03772590  0.50901585  0.90944340    -0.94400
O1007       O  0.02569130  0.45865548  0.90897743    -0.92800
O1008       O  0.90259251  0.47335980  0.91763009    -0.93100
O1009       O  0.91733472  0.53206992  0.91231831    -0.91900
C1010       C  0.03696560  0.48294856  0.89608192     1.17100
H1011       H  0.93189208  0.43997093  0.97447481     0.33100
H1012       H  0.95253264  0.56170798  0.96503899     0.43900
H1013       H  0.06187467  0.48054685  0.96657890     0.37500
H1014       H  0.98951165  0.50388736  0.07150662     0.33900
H1015       H  0.86549661  0.53662945  0.98407202     0.25700
H1016       H  0.01382351  0.58651764  0.05755556     0.31700
H1017       H  0.08373427  0.51894004  0.07564421     0.37600
H1018       H  0.92229956  0.47010192  0.90412685     0.32000
H1019       H  0.96435471  0.42550728  0.90927479     0.30900
H1020       H  0.04109324  0.39330813  0.94609114     0.32600
H1021       H  0.10429345  0.46361313  0.00998470     0.31600
H1022       H  0.92048637  0.55372623  0.91782938     0.35600
H1023       H  0.99399250  0.54791331  0.89599596     0.28300
H1024       H  0.92451919  0.43307477  0.08603620     0.32500
H1025       H  0.03854052  0.44259220  0.07157131     0.35400
H1026       H  0.98092086  0.39640424  0.92421529     0.28000
H1027       H  0.98673771  0.57647270  0.91622732     0.40900
H1028       H  0.89578119  0.56742962  0.03193701     0.30900
H1029       H  0.88878532  0.56125422  0.97030550     0.38500
H1030       H  0.07862891  0.43755075  0.01335373     0.30400
H1031       H  0.97911924  0.60014418  0.06821087     0.30400
H1032       H  0.96012611  0.44431884  0.09546379     0.30700
Zr1033     Zr  0.45316431  0.53354326  0.01423551     2.17500
O1034       O  0.39758863  0.54521909  0.03503134    -0.51700
O1035       O  0.46508413  0.58605753  0.02675570    -0.74900
O1036       O  0.44785617  0.52536094  0.06957189    -0.81600
O1037       O  0.41936414  0.54431953  0.93113337    -0.83400
O1038       O  0.49147919  0.49646418  0.08716945    -0.79000
O1039       O  0.40720106  0.55006718  0.98207570    -0.90600
O1040       O  0.51651521  0.59694296  0.00890294    -0.76600
O1041       O  0.50981982  0.53268362  0.03008007    -0.86100
O1042       O  0.48379179  0.55286441  0.97174221    -0.85800
O1043       O  0.46508662  0.48108761  0.02627189    -0.72500
O1044       O  0.44243426  0.50044806  0.97157383    -0.84700
Zr1045     Zr  0.54443144  0.46472910  0.95708469     2.26400
Zr1046     Zr  0.52267464  0.48023726  0.04131467     2.06300
Zr1047     Zr  0.47459742  0.51909891  0.92935360     2.10000
Zr1048     Zr  0.54066838  0.55063754  0.98718794     1.78800
O1049       O  0.43983535  0.49885512  0.88867302    -0.93500
O1050       O  0.57836032  0.56602778  0.02793577    -0.41300
O1051       O  0.53194510  0.51709248  0.94468496    -0.77900
O1052       O  0.55517814  0.49865776  0.99913927    -0.96600
O1053       O  0.51300743  0.44631194  0.99918968    -0.89900
O1054       O  0.48778560  0.46669477  0.94049880    -0.92800
C1055       C  0.48913982  0.60428099  0.02263328     1.01000
C1056       C  0.40010098  0.55271309  0.95348159     1.13900
C1057       C  0.46420685  0.51206476  0.09135336     1.04700
O1058       O  0.56297836  0.50088479  0.07704405    -0.94900
O1059       O  0.57320939  0.44837492  0.04048296    -0.90700
O1060       O  0.58371796  0.43739461  0.99002143    -0.83800
C1061       C  0.59004212  0.43516774  0.01888399     1.11300
O1062       O  0.39973099  0.44384500  0.00185519    -0.96900
Zr1063     Zr  0.45652936  0.44850498  0.98291883     1.88900
O1064       O  0.53303041  0.41251075  0.94190199    -0.73500
O1065       O  0.51185275  0.43397676  0.07017778    -0.52800
O1066       O  0.45255991  0.40902070  0.02195037    -0.97500
O1067       O  0.41548364  0.43546727  0.94405977    -0.54700
O1068       O  0.48004743  0.40392031  0.95770818    -0.74100
C1069       C  0.50750917  0.39567067  0.94471227     0.98300
O1070       O  0.60286591  0.46368183  0.94110642    -0.62900
O1071       O  0.48253240  0.56770190  0.90350658    -0.57700
O1072       O  0.55091013  0.47213801  0.90205686    -0.94400
O1073       O  0.51102282  0.50606531  0.88562141    -0.92800
O1074       O  0.54780665  0.58667979  0.94525627    -0.93100
O1075       O  0.59860085  0.55449526  0.97097429    -0.91900
C1076       C  0.53705113  0.48871782  0.88112850     1.17100
H1077       H  0.47636347  0.57334291  0.96654578     0.33100
H1078       H  0.57863126  0.49760017  0.00423468     0.43900
H1079       H  0.48478038  0.45432943  0.92234289     0.37500
H1080       H  0.45109385  0.47414900  0.04279901     0.33900
H1081       H  0.58394694  0.58732435  0.02294153     0.25700
H1082       H  0.52434204  0.43630836  0.08962409     0.31700
H1083       H  0.47501115  0.39905920  0.02253477     0.37600
H1084       H  0.52744947  0.59996867  0.94566836     0.32000
H1085       H  0.50313157  0.56484175  0.89110814     0.30900
H1086       H  0.44171328  0.51362833  0.87160473     0.32600
H1087       H  0.41811235  0.41312777  0.94106520     0.31600
H1088       H  0.60022811  0.54236899  0.95175111     0.35600
H1089       H  0.60493174  0.44756571  0.92515259     0.28300
H1090       H  0.40061385  0.56030311  0.05173704     0.32500
H1091       H  0.39265749  0.46492488  0.00759504     0.35400
H1092       H  0.46435645  0.56916748  0.88816478     0.28000
H1093       H  0.60612118  0.48309284  0.93002620     0.40900
H1094       H  0.58008693  0.51007203  0.06376133     0.30900
H1095       H  0.56416614  0.56785273  0.04655809     0.38500
H1096       H  0.42381109  0.44435834  0.92469412     0.30400
H1097       H  0.48807409  0.43583671  0.07627501     0.30400
H1098       H  0.39036038  0.52640007  0.04537861     0.30700
Zr1099     Zr  0.96513991  0.54203605  0.46671308     2.17500
O1100       O  0.92512507  0.58490534  0.46281403    -0.51700
O1101       O  0.94747422  0.53149870  0.41408326    -0.74900
O1102       O  0.98875226  0.58889513  0.44834573    -0.81600
O1103       O  0.89792454  0.49655336  0.50879124    -0.83400
O1104       O  0.04451610  0.58933700  0.45701435    -0.79000
O1105       O  0.90800482  0.54057148  0.48317061    -0.90600
O1106       O  0.97884531  0.49181704  0.39543121    -0.76600
O1107       O  0.01557746  0.52457456  0.44284226    -0.86100
O1108       O  0.95879584  0.48841982  0.46192776    -0.85800
O1109       O  0.00837409  0.55715826  0.50141539    -0.72500
O1110       O  0.95732137  0.52381569  0.51822413    -0.84700
Zr1111     Zr  0.04677306  0.46642414  0.52516028     2.26400
Zr1112     Zr  0.05931563  0.53833005  0.47771190     2.06300
Zr1113     Zr  0.95227412  0.46966242  0.51339695     2.10000
Zr1114     Zr  0.00969173  0.47075858  0.43909749     1.78800
O1115       O  0.92048571  0.46176699  0.56034802    -0.93500
O1116       O  0.05073045  0.47404343  0.39787452    -0.41300
O1117       O  0.00341755  0.45161272  0.49042833    -0.77900
O1118       O  0.05411952  0.48391377  0.47303529    -0.96600
O1119       O  0.05267966  0.52004808  0.52953167    -0.89900
O1120       O  0.99576394  0.48355750  0.54812549    -0.92800
C1121       C  0.95646887  0.51306924  0.39239977     1.01000
C1122       C  0.88870307  0.52233772  0.49700482     1.13900
C1123       C  0.01690987  0.60200115  0.44773095     1.04700
O1124       O  0.09079120  0.54523794  0.43038732    -0.94900
O1125       O  0.11387770  0.51124993  0.48261484    -0.90700
O1126       O  0.10570203  0.47440399  0.51838750    -0.83800
C1127       C  0.12425225  0.48918935  0.50000514     1.11300
O1128       O  0.97127183  0.58547737  0.56159914    -0.96900
Zr1129     Zr  0.00147886  0.53726891  0.55228946     1.88900
O1130       O  0.05938242  0.47316286  0.58035710    -0.73500
O1131       O  0.09418773  0.57441827  0.50450323    -0.52800
O1132       O  0.04036752  0.57639413  0.56716607    -0.97500
O1133       O  0.96012237  0.53452808  0.59336991    -0.54700
O1134       O  0.02992856  0.51508643  0.59650532    -0.74100
C1135       C  0.04976985  0.49219331  0.60150797     0.98300
O1136       O  0.08095953  0.41960284  0.52085207    -0.62900
O1137       O  0.91730267  0.43486013  0.48499368    -0.57700
O1138       O  0.02433431  0.41824549  0.54039017    -0.94400
O1139       O  0.96837723  0.41856515  0.53273582    -0.92800
O1140       O  0.97435910  0.42875715  0.42452790    -0.93100
O1141       O  0.04009826  0.42296276  0.42874006    -0.91900
C1142       C  0.99608540  0.40526361  0.54085843     1.17100
H1143       H  0.93964820  0.48357623  0.44953403     0.33100
H1144       H  0.07391487  0.47441736  0.46416277     0.43900
H1145       H  0.99240854  0.47414342  0.56791652     0.37500
H1146       H  0.00837342  0.57907199  0.50365756     0.33900
H1147       H  0.04138282  0.46209580  0.38071440     0.25700
H1148       H  0.10623350  0.56213543  0.52023275     0.31700
H1149       H  0.03952086  0.57688495  0.58992597     0.37600
H1150       H  0.95488017  0.43840551  0.41408215     0.32000
H1151       H  0.93318519  0.42000190  0.47535809     0.30900
H1152       H  0.92347084  0.48055616  0.57257588     0.32600
H1153       H  0.96229179  0.51346022  0.60140391     0.31600
H1154       H  0.05170371  0.41806343  0.44825962     0.35600
H1155       H  0.09287738  0.42079362  0.50091946     0.28300
H1156       H  0.92576593  0.59172397  0.44112054     0.32500
H1157       H  0.97672073  0.59137169  0.58297851     0.35400
H1158       H  0.90588342  0.42304252  0.50108505     0.28000
H1159       H  0.09847748  0.42084399  0.53680169     0.40900
H1160       H  0.07543856  0.53934083  0.41374823     0.30900
H1161       H  0.04890826  0.49545314  0.39077769     0.38500
H1162       H  0.93830781  0.53522983  0.58272719     0.30400
H1163       H  0.11156016  0.57958053  0.48928688     0.30400
H1164       H  0.93442147  0.60182731  0.47494702     0.30700
C1165       C  0.23693095  0.35446030  0.54041107     0.86200
C1166       C  0.21616490  0.38404047  0.53560976    -0.54100
C1167       C  0.22570063  0.40073346  0.51065362     0.09100
C1168       C  0.25517698  0.38574634  0.49239092     0.20000
C1169       C  0.23391731  0.33725416  0.51009874    -0.54800
C1170       C  0.24369845  0.35286136  0.48480902     0.09200
C1171       C  0.27291818  0.36506668  0.54182496    -0.54300
C1172       C  0.28263493  0.38143977  0.51710985     0.09800
H1173       H  0.19570503  0.39173199  0.55020960     0.14300
H1174       H  0.26307543  0.39919000  0.47216756     0.00000
H1175       H  0.22587128  0.31379925  0.50902062     0.14600
H1176       H  0.28918947  0.36077288  0.56140587     0.14400
Zr1177     Zr  0.45946661  0.47370818  0.46591878     2.17500
O1178       O  0.40156082  0.47437978  0.44863351    -0.51700
O1179       O  0.47690075  0.42321242  0.44746268    -0.74900
O1180       O  0.45415198  0.48416409  0.41124151    -0.81600
O1181       O  0.42442300  0.44971026  0.54289842    -0.83400
O1182       O  0.48886173  0.52252985  0.39964201    -0.79000
O1183       O  0.42017279  0.44224477  0.49117860    -0.90600
O1184       O  0.52791606  0.41242222  0.46770647    -0.76600
O1185       O  0.51603959  0.47918089  0.45120330    -0.86100
O1186       O  0.49064681  0.45114717  0.50702159    -0.85800
O1187       O  0.46531116  0.52780340  0.46101900    -0.72500
O1188       O  0.44340580  0.50073339  0.51201025    -0.84700
Zr1189     Zr  0.53922588  0.53815657  0.53342165     2.26400
Zr1190     Zr  0.52270101  0.53316311  0.44659915     2.06300
Zr1191     Zr  0.47566662  0.47842649  0.55299778     2.10000
Zr1192     Zr  0.54722516  0.45749458  0.49281925     1.78800
O1193       O  0.43598788  0.49305149  0.59334989    -0.93500
O1194       O  0.58640283  0.44745804  0.45081111    -0.41300
O1195       O  0.53293787  0.48438858  0.53916576    -0.77900
O1196       O  0.55528972  0.51079319  0.48756517    -0.96600
O1197       O  0.50770194  0.56073809  0.49267526    -0.89900
O1198       O  0.48279997  0.53233354  0.54868224    -0.92800
C1199       C  0.50214910  0.40519626  0.45233333     1.01000
C1200       C  0.41029306  0.43844925  0.51882751     1.13900
C1201       C  0.46569841  0.50370254  0.39232983     1.04700
O1202       O  0.56316189  0.51758937  0.40732136    -0.94900
O1203       O  0.57423705  0.56149751  0.45651606    -0.90700
O1204       O  0.57728856  0.57085813  0.50793857    -0.83800
C1205       C  0.58846864  0.57290510  0.48047432     1.11300
O1206       O  0.39406789  0.55815136  0.48935854    -0.96900
Zr1207     Zr  0.45133343  0.55446848  0.50777180     1.88900
O1208       O  0.52303321  0.58846592  0.55249907    -0.73500
O1209       O  0.51354222  0.58303834  0.42313963    -0.52800
O1210       O  0.43985890  0.59816760  0.47460810    -0.97500
O1211       O  0.41031104  0.55987516  0.54906186    -0.54700
O1212       O  0.47061091  0.59878554  0.53533872    -0.74100
C1213       C  0.49712592  0.60607497  0.54972171     0.98300
O1214       O  0.59664420  0.53366479  0.55217373    -0.62900
O1215       O  0.48612817  0.42860627  0.57623174    -0.57700
O1216       O  0.54302221  0.52902886  0.58812743    -0.94400
O1217       O  0.51175076  0.48768653  0.59835477    -0.92800
O1218       O  0.55963647  0.41787111  0.53056930    -0.93100
O1219       O  0.60573389  0.45566705  0.50781165    -0.91900
C1220       C  0.53305951  0.50797486  0.60610740     1.17100
H1221       H  0.48568324  0.42986043  0.50962153     0.33100
H1222       H  0.57886175  0.51283328  0.48375416     0.43900
H1223       H  0.47808761  0.54251664  0.56804002     0.37500
H1224       H  0.45065688  0.53576441  0.44519828     0.33900
H1225       H  0.59349940  0.42578368  0.45326959     0.25700
H1226       H  0.51738373  0.57957208  0.40088113     0.31700
H1227       H  0.46085424  0.60955344  0.47435660     0.37600
H1228       H  0.56844057  0.40031114  0.51836663     0.32000
H1229       H  0.51048309  0.42761457  0.57998797     0.30900
H1230       H  0.44910385  0.49345933  0.61259815     0.32600
H1231       H  0.42186172  0.57052176  0.56590582     0.31600
H1232       H  0.60807278  0.47312341  0.52204390     0.35600
H1233       H  0.59802140  0.51401937  0.56335022     0.28300
H1234       H  0.40041308  0.45847897  0.43248040     0.32500
H1235       H  0.38472005  0.53794456  0.49378418     0.35400
H1236       H  0.47602659  0.43033443  0.59699251     0.28000
H1237       H  0.61076298  0.52985886  0.53375981     0.40900
H1238       H  0.55500684  0.52736651  0.38816010     0.30900
H1239       H  0.57256085  0.44771430  0.43197887     0.38500
H1240       H  0.40751517  0.53887632  0.55679399     0.30400
H1241       H  0.48920276  0.58705214  0.42496883     0.30400
H1242       H  0.39793370  0.49402318  0.43778189     0.30700
C1243       C  0.40060104  0.51400257  0.21344769     0.86200
C1244       C  0.37779493  0.54203988  0.21936460    -0.54100
C1245       C  0.35821770  0.54046690  0.24497568     0.09100
C1246       C  0.36386319  0.51032043  0.26334669     0.20000
C1247       C  0.42105116  0.51087960  0.24342999    -0.54800
C1248       C  0.40224530  0.50936808  0.26984121     0.09200
C1249       C  0.37758777  0.48676043  0.21391598    -0.54300
C1250       C  0.35796420  0.48430363  0.23941405     0.09800
H1251       H  0.37730504  0.56188806  0.20442369     0.14300
H1252       H  0.34817987  0.50903418  0.28435835     0.00000
H1253       H  0.44802821  0.51047886  0.24422156     0.14600
H1254       H  0.37772104  0.47005897  0.19540936     0.14400
C1255       C  0.99881234  0.78212051  0.93617802     0.86200
C1256       C  0.96896514  0.77729886  0.91422919    -0.54100
C1257       C  0.97279028  0.75254996  0.89485066     0.09100
C1258       C  0.00645739  0.73517928  0.89915777     0.20000
C1259       C  0.00379722  0.75188224  0.95266896    -0.54800
C1260       C  0.00698393  0.72717137  0.93386093     0.09200
C1261       C  0.02846167  0.78424056  0.91411482    -0.54300
C1262       C  0.03342727  0.75985977  0.89483910     0.09800
H1263       H  0.94715362  0.79230196  0.91297122     0.14300
H1264       H  0.00926554  0.71502312  0.88387324     0.00000
H1265       H  0.00381426  0.75019150  0.97760536     0.14600
H1266       H  0.04364195  0.80434638  0.91333818     0.14400
Zr1267     Zr  0.19984259  0.71182761  0.77413364     2.17500
O1268       O  0.14657757  0.68620784  0.77168884    -0.51700
O1269       O  0.21176489  0.69843660  0.82697030    -0.74900
O1270       O  0.20621222  0.65721866  0.76936999    -0.81600
O1271       O  0.15921065  0.78587858  0.79931596    -0.83400
O1272       O  0.24519928  0.64574852  0.73275269    -0.79000
O1273       O  0.15153070  0.73463970  0.79832436    -0.90600
O1274       O  0.26389477  0.71456764  0.83728488    -0.76600
O1275       O  0.25838016  0.70163256  0.77390243    -0.86100
O1276       O  0.22326903  0.75586040  0.79680490    -0.85800
O1277       O  0.21407053  0.70302626  0.72129516    -0.72500
O1278       O  0.18152668  0.75381527  0.74275477    -0.84700
Zr1279     Zr  0.28054835  0.77880117  0.71014679     2.26400
Zr1280     Zr  0.27348961  0.69345719  0.72103622     2.06300
Zr1281     Zr  0.20664369  0.79777107  0.76472763     2.10000
Zr1282     Zr  0.28167252  0.74627337  0.79538898     1.78800
O1283       O  0.16261373  0.82819777  0.74015372    -0.93500
O1284       O  0.33087523  0.71512743  0.80830161    -0.41300
O1285       O  0.26560502  0.78778333  0.76298342    -0.77900
O1286       O  0.29816084  0.73763669  0.74344744    -0.96600
O1287       O  0.25650943  0.73501957  0.68801859    -0.89900
O1288       O  0.22193811  0.79031419  0.71145477    -0.92800
C1289       C  0.23734245  0.70056265  0.84434867     1.01000
C1290       C  0.14324176  0.76171004  0.80682956     1.13900
C1291       C  0.22205067  0.63836998  0.75176239     1.04700
O1292       O  0.31370573  0.65684815  0.74257751    -0.94900
O1293       O  0.32927230  0.70117477  0.69848889    -0.90700
O1294       O  0.33251088  0.75271697  0.69560722    -0.83800
C1295       C  0.34531002  0.72569363  0.69301092     1.11300
O1296       O  0.14526007  0.71991081  0.68449258    -0.96900
Zr1297     Zr  0.19782223  0.74584740  0.69024110     1.88900
O1298       O  0.26591267  0.79348824  0.65775148    -0.73500
O1299       O  0.27032858  0.66722424  0.67172055    -0.52800
O1300       O  0.19827535  0.71019667  0.64717918    -0.97500
O1301       O  0.15041984  0.77987475  0.67870902    -0.54700
O1302       O  0.21592381  0.77401641  0.64602753    -0.74100
C1303       C  0.24157018  0.78937496  0.63925045     0.98300
O1304       O  0.32379107  0.81254458  0.69154619    -0.62900
O1305       O  0.20602620  0.83255604  0.80861780    -0.57700
O1306       O  0.28625824  0.82881539  0.73200147    -0.94400
O1307       O  0.23977740  0.84403427  0.75846930    -0.92800
O1308       O  0.27784937  0.78386647  0.83673808    -0.93100
O1309       O  0.33286724  0.77444411  0.80084823    -0.91900
C1310       C  0.26895670  0.84875631  0.74709842     1.17100
H1311       H  0.21563943  0.75902911  0.81770007     0.33100
H1312       H  0.32199560  0.73514392  0.74554527     0.43900
H1313       H  0.21640754  0.80836663  0.69962350     0.37500
H1314       H  0.20253112  0.68553138  0.71361897     0.33900
H1315       H  0.33053113  0.71350496  0.83101173     0.25700
H1316       H  0.27959092  0.68162553  0.65663616     0.31700
H1317       H  0.20489639  0.69022762  0.65618655     0.37600
H1318       H  0.26999643  0.77253177  0.85491044     0.32000
H1319       H  0.18291503  0.84104209  0.80977166     0.30900
H1320       H  0.16092537  0.84714616  0.75257513     0.32600
H1321       H  0.16026817  0.79944245  0.67265694     0.31600
H1322       H  0.33172861  0.78996316  0.78433862     0.35600
H1323       H  0.34368834  0.80848973  0.70453534     0.28300
H1324       H  0.14706479  0.67104414  0.78854828     0.32500
H1325       H  0.14129193  0.71053215  0.70481692     0.35400
H1326       H  0.20832992  0.81921884  0.82687960     0.28000
H1327       H  0.33023088  0.80508785  0.67077547     0.40900
H1328       H  0.31834123  0.64206097  0.72574233     0.30900
H1329       H  0.32573253  0.69440826  0.80088028     0.38500
H1330       H  0.13979468  0.78417717  0.69889778     0.30400
H1331       H  0.28730785  0.65045510  0.67302800     0.30400
H1332       H  0.14726315  0.67398322  0.75249445     0.30700
C1333       C  0.49325547  0.78389078  0.60638732     0.86200
C1334       C  0.52644934  0.78361774  0.62322797    -0.54100
C1335       C  0.53410592  0.75750912  0.63856031     0.09100
C1336       C  0.50664160  0.73326354  0.63627347     0.20000
C1337       C  0.49514674  0.75497988  0.58565553    -0.54800
C1338       C  0.50160739  0.72827020  0.60153125     0.09200
C1339       C  0.46713507  0.77601515  0.63066391    -0.54300
C1340       C  0.47369172  0.74952650  0.64617191     0.09800
H1341       H  0.54354274  0.80242033  0.62186003     0.14300
H1342       H  0.51207186  0.71223283  0.64968147     0.00000
H1343       H  0.49075338  0.75518997  0.56111144     0.14600
H1344       H  0.44394209  0.78912831  0.63362637     0.14400
C1345       C  0.42808439  0.71184532  0.65157936    -0.21600
C1346       C  0.44659751  0.73568636  0.66427019    -0.09700
C1347       C  0.43372674  0.75159601  0.68982434     0.29200
C1348       C  0.40164624  0.74598417  0.70048787    -0.21600
C1349       C  0.38156298  0.72445217  0.68590058    -0.09700
C1350       C  0.39568004  0.70610006  0.66241928     0.29200
F1351       F  0.37717618  0.68490356  0.64803500    -0.20200
H1352       H  0.43745545  0.69958231  0.63154630     0.17600
H1353       H  0.39156156  0.76003877  0.71903044     0.17600
F1354       F  0.45104479  0.77456232  0.70265554    -0.20200
C1355       C  0.08546073  0.74695721  0.82149680    -0.21600
C1356       C  0.11400130  0.76393763  0.82777644    -0.09700
C1357       C  0.11642859  0.77835889  0.85643849     0.29200
C1358       C  0.09091691  0.77572924  0.87828118    -0.21600
C1359       C  0.06165972  0.75949981  0.87187654    -0.09700
C1360       C  0.05938105  0.74503388  0.84300926     0.29200
F1361       F  0.03182938  0.72961629  0.83505147    -0.20200
H1362       H  0.08342345  0.73501643  0.79975526     0.17600
H1363       H  0.09447974  0.78626402  0.90052330     0.17600
F1364       F  0.14431377  0.79355783  0.86402827    -0.20200
C1365       C  0.47624960  0.66036680  0.55260554    -0.21600
C1366       C  0.49789861  0.63703944  0.56348806    -0.09700
C1367       C  0.52010820  0.64379952  0.58736357     0.29200
C1368       C  0.52083065  0.67325509  0.59959377    -0.21600
C1369       C  0.50040702  0.69704062  0.58777839    -0.09700
C1370       C  0.47743673  0.69001700  0.56450165     0.29200
F1371       F  0.45499542  0.71128814  0.55414088    -0.20200
H1372       H  0.45842298  0.65574443  0.53461597     0.17600
H1373       H  0.53744893  0.67708918  0.61855712     0.17600
F1374       F  0.54067280  0.62185889  0.59948637    -0.20200
C1375       C  0.40674306  0.48873091  0.32412736    -0.21600
C1376       C  0.41812058  0.50858343  0.30139951    -0.09700
C1377       C  0.44552122  0.52692305  0.30880669     0.29200
C1378       C  0.46100191  0.52511513  0.33792137    -0.21600
C1379       C  0.44996745  0.50484212  0.36062539    -0.09700
C1380       C  0.42244758  0.48650809  0.35301860     0.29200
F1381       F  0.41034974  0.46618130  0.37340191    -0.20200
H1382       H  0.38598414  0.47426059  0.31934519     0.17600
H1383       H  0.48163076  0.53982951  0.34270898     0.17600
F1384       F  0.45688919  0.54738346  0.28817841    -0.20200
C1385       C  0.34167071  0.38423950  0.49953096    -0.21600
C1386       C  0.31531890  0.39619405  0.51733864    -0.09700
C1387       C  0.32144515  0.41974500  0.53850132     0.29200
C1388       C  0.35322165  0.43211489  0.54066998    -0.21600
C1389       C  0.37930903  0.42112812  0.52177726    -0.09700
C1390       C  0.37334999  0.39665559  0.50149911     0.29200
F1391       F  0.39818443  0.38489344  0.48336344    -0.20200
H1392       H  0.33790196  0.36498566  0.48445473     0.17600
H1393       H  0.35703837  0.45116385  0.55607404     0.17600
F1394       F  0.29649462  0.43097214  0.55680454    -0.20200
C1395       C  0.20190289  0.45100898  0.52819110    -0.21600
C1396       C  0.20868267  0.43059216  0.50380116    -0.09700
C1397       C  0.19344848  0.43614803  0.47520862     0.29200
C1398       C  0.16865804  0.45933959  0.47242463    -0.21600
C1399       C  0.15898245  0.47719558  0.49807647    -0.09700
C1400       C  0.17718811  0.47394042  0.52546895     0.29200
F1401       F  0.16815937  0.49044571  0.55077466    -0.20200
H1402       H  0.21364026  0.44740687  0.55035940     0.17600
H1403       H  0.15440934  0.46091994  0.45132038     0.17600
F1404       F  0.19943780  0.41690297  0.45119712    -0.20200
C1405       C  0.41520668  0.52047308  0.12637295    -0.21600
C1406       C  0.44954976  0.51417975  0.12293803    -0.09700
C1407       C  0.46873439  0.50924997  0.14967701     0.29200
C1408       C  0.45365815  0.51008839  0.17896139    -0.21600
C1409       C  0.41898132  0.51566344  0.18237052    -0.09700
C1410       C  0.40011001  0.52097657  0.15537122     0.29200
F1411       F  0.36657947  0.52608942  0.15688898    -0.20200
H1412       H  0.39956838  0.52422821  0.10638676     0.17600
H1413       H  0.46939259  0.50550617  0.19857698     0.17600
F1414       F  0.50213366  0.50371347  0.14762911    -0.20200
C1415       C  0.02494111  0.64297528  0.94593726    -0.21600
C1416       C  0.00420591  0.63648268  0.97134378    -0.09700
C1417       C  0.98546923  0.66044927  0.98491220     0.29200
C1418       C  0.98647978  0.68974148  0.97247674    -0.21600
C1419       C  0.00659517  0.69590835  0.94666131    -0.09700
C1420       C  0.02616252  0.67228263  0.93375185     0.29200
F1421       F  0.04697823  0.67750895  0.90978018    -0.20200
H1422       H  0.04007822  0.62522142  0.93495034     0.17600
H1423       H  0.97084265  0.70753250  0.98278384     0.17600
F1424       F  0.96561920  0.65561675  0.00966411    -0.20200
C1425       C  0.48078416  0.33550969  0.40546658    -0.21600
C1426       C  0.50132587  0.31294312  0.41918797    -0.09700
C1427       C  0.52215039  0.32085450  0.44360417     0.29200
C1428       C  0.52236089  0.35096997  0.45401829    -0.21600
C1429       C  0.50166626  0.37364552  0.44041356    -0.09700
C1430       C  0.48083238  0.36559653  0.41593005     0.29200
F1431       F  0.46096647  0.38676518  0.40171351    -0.20200
H1432       H  0.46429665  0.32982050  0.38674675     0.17600
H1433       H  0.53862992  0.35647069  0.47298256     0.17600
F1434       F  0.54280944  0.29970560  0.45689609    -0.20200
C1435       C  0.48140881  0.87051615  0.59999479    -0.21600
C1436       C  0.48537703  0.87555255  0.56849898    -0.09700
C1437       C  0.48929885  0.85040528  0.54855912     0.29200
C1438       C  0.48978978  0.82057448  0.56016830    -0.21600
C1439       C  0.48702500  0.81532343  0.59202953    -0.09700
C1440       C  0.48276033  0.84093066  0.61175136     0.29200
F1441       F  0.48162247  0.83745929  0.64276959    -0.20200
H1442       H  0.47886852  0.88965494  0.61574246     0.17600
H1443       H  0.49391678  0.80202241  0.54412955     0.17600
F1444       F  0.49294202  0.85473783  0.51784007    -0.20200
C1445       C  0.45778594  0.18191963  0.43043362    -0.21600
C1446       C  0.48698846  0.19898559  0.42885287    -0.09700
C1447       C  0.51567951  0.18792416  0.44452466     0.29200
C1448       C  0.51581409  0.15938514  0.45872619    -0.21600
C1449       C  0.48714174  0.14184180  0.45827470    -0.09700
C1450       C  0.45794201  0.15362501  0.44456766     0.14800
F1451       F  0.42978873  0.13710597  0.44334825    -0.20200
H1452       H  0.43454512  0.18936620  0.42034293     0.17600
H1453       H  0.53835918  0.15088926  0.46984046     0.17600
F1454       F  0.54409527  0.20409295  0.44483696    -0.20200
C1455       C  0.30122311  0.08891388  0.00333541    -0.21600
C1456       C  0.29929901  0.11035038  0.02739335    -0.09700
C1457       C  0.31853739  0.10576857  0.05388127     0.29200
C1458       C  0.34244243  0.08193034  0.05456307    -0.21600
C1459       C  0.34734000  0.06299312  0.02866887    -0.09700
C1460       C  0.32537279  0.06558671  0.00371455     0.29200
F1461       F  0.32890118  0.04705683  0.97876304    -0.20200
H1462       H  0.28585359  0.09186341  0.98302258     0.17600
H1463       H  0.35920652  0.08015062  0.07402129     0.17600
F1464       F  0.31659354  0.12598362  0.07756111    -0.20200
C1465       C  0.08170972  0.97653486  0.33926497    -0.21600
C1466       C  0.08065509  0.00223311  0.31976060    -0.09700
C1467       C  0.05630233  0.02534600  0.32655292     0.29200
C1468       C  0.03701671  0.02439399  0.35373861    -0.21600
C1469       C  0.04084771  0.00000783  0.37451053    -0.09700
C1470       C  0.06238838  0.97542212  0.36600568     0.29200
F1471       F  0.06549881  0.95015385  0.38391069    -0.20200
H1472       H  0.09747481  0.95681691  0.33469591     0.17600
H1473       H  0.02017480  0.04339870  0.35913950     0.17600
F1474       F  0.05224915  0.04969937  0.30758868    -0.20200
C1475       C  0.33340525  0.44165766  0.27053760    -0.21600
C1476       C  0.33529473  0.45754385  0.24270053    -0.09700
C1477       C  0.31861124  0.44534198  0.21691672     0.29200
C1478       C  0.30289211  0.41704683  0.21853997    -0.21600
C1479       C  0.30274532  0.40015529  0.24596272    -0.09700
C1480       C  0.31745811  0.41350105  0.27231880     0.29200
F1481       F  0.31750172  0.39905408  0.29990010    -0.20200
H1482       H  0.34558069  0.45031484  0.29077593     0.17600
H1483       H  0.29113018  0.40821493  0.19808947     0.17600
F1484       F  0.31760731  0.46070127  0.18985435    -0.20200
C1485       C  0.27489323  0.32096264  0.40833483    -0.21600
C1486       C  0.24917035  0.30115143  0.39979616    -0.09700
C1487       C  0.22137621  0.29921086  0.41930811     0.29200
C1488       C  0.21930000  0.31692773  0.44621303    -0.21600
C1489       C  0.24472627  0.33712764  0.45430892    -0.09700
C1490       C  0.27257381  0.33893793  0.43495591     0.29200
F1491       F  0.29788580  0.35761824  0.44189787    -0.20200
H1492       H  0.29664476  0.32329671  0.39377523     0.17600
H1493       H  0.19741648  0.31509454  0.46067380     0.17600
F1494       F  0.19541847  0.28149955  0.41167103    -0.20200
C1495       C  0.43595934  0.26888697  0.32053477    -0.21600
C1496       C  0.43560023  0.27347009  0.35231420    -0.09700
C1497       C  0.40760862  0.28700546  0.36675487     0.29200
C1498       C  0.37897837  0.29372176  0.34968838    -0.21600
C1499       C  0.37808836  0.28639089  0.31827227    -0.09700
C1500       C  0.40725237  0.27519399  0.30348733     0.29200
F1501       F  0.40728046  0.26854377  0.27296249    -0.20200
H1502       H  0.45765773  0.25853485  0.30934258     0.17600
H1503       H  0.35674289  0.30217826  0.36149089     0.17600
F1504       F  0.40739770  0.29184385  0.39762605    -0.20200
C1505       C  0.18859513  0.11623869  0.29797772    -0.21600
C1506       C  0.18005169  0.13684603  0.27427066    -0.09700
C1507       C  0.16184871  0.12511848  0.24904259     0.29200
C1508       C  0.15291252  0.09425865  0.24763993    -0.21600
C1509       C  0.16135718  0.07374856  0.27122063    -0.09700
C1510       C  0.17915405  0.08531920  0.29665699     0.29200
F1511       F  0.18690093  0.06674135  0.32066185    -0.20200
H1512       H  0.20254610  0.12404229  0.31765132     0.17600
H1513       H  0.13761410  0.08685034  0.22875834     0.17600
F1514       F  0.15117182  0.14377235  0.22602334    -0.20200
C1515       C  0.21247890  0.21868879  0.11191812    -0.21600
C1516       C  0.23793246  0.23776931  0.12223652    -0.09700
C1517       C  0.26724556  0.23971026  0.10468408     0.29200
C1518       C  0.27115518  0.22216954  0.07782863    -0.21600
C1519       C  0.24611176  0.20232029  0.06838915    -0.09700
C1520       C  0.21653048  0.20107352  0.08536504     0.29200
F1521       F  0.19127157  0.18334774  0.07595191    -0.20200
H1522       H  0.18956900  0.21681715  0.12498039     0.17600
H1523       H  0.29404918  0.22354929  0.06467719     0.17600
F1524       F  0.29273936  0.25705633  0.11433845    -0.20200
C1525       C  0.02779211  0.81630040  0.97418742    -0.21600
C1526       C  0.99769822  0.80827642  0.95962939    -0.09700
C1527       C  0.96814882  0.82399040  0.96875562     0.29200
C1528       C  0.96981705  0.84980088  0.98760141    -0.21600
C1529       C  0.00061744  0.86030117  0.99809538    -0.09700
C1530       C  0.02941819  0.84231304  0.99278202     0.29200
F1531       F  0.05960300  0.85163654  0.00260869    -0.20200
H1532       H  0.05069939  0.80341960  0.96954723     0.17600
H1533       H  0.94713191  0.86296243  0.99231114     0.17600
F1534       F  0.93763369  0.81480334  0.95993605    -0.20200
C1535       C  0.16921690  0.07536144  0.99137934    -0.21600
C1536       C  0.14998137  0.07205888  0.01814502    -0.09700
C1537       C  0.15672726  0.09074448  0.04377370     0.29200
C1538       C  0.18091250  0.11313169  0.04187352    -0.21600
C1539       C  0.19851640  0.11770608  0.01442742    -0.09700
C1540       C  0.19318898  0.09779369  0.98945475     0.29200
F1541       F  0.21133312  0.09962862  0.96315268    -0.20200
H1542       H  0.16498966  0.06122455  0.97136188     0.17600
H1543       H  0.18514826  0.12745064  0.06169366     0.17600
F1544       F  0.13957809  0.08789415  0.07053093    -0.20200
C1545       C  0.10275273  0.02211685  0.14976008    -0.21600
C1546       C  0.08124287  0.99856063  0.14118173    -0.09700
C1547       C  0.07136682  0.97819884  0.16432189     0.29200
C1548       C  0.08150812  0.98224019  0.19509556    -0.21600
C1549       C  0.10250671  0.00615587  0.20371409    -0.09700
C1550       C  0.11368590  0.02556416  0.18033056     0.29200
F1551       F  0.13432187  0.04861424  0.18703829    -0.20200
H1552       H  0.11109357  0.03817642  0.13267839     0.17600
H1553       H  0.07295649  0.96641746  0.21230061     0.17600
F1554       F  0.05091316  0.95497631  0.15751385    -0.20200
C1555       C  0.97070732  0.35626737  0.05846747    -0.21600
C1556       C  0.98989303  0.36375017  0.03243268    -0.09700
C1557       C  0.01416235  0.34254117  0.02169663     0.29200
C1558       C  0.01880179  0.31459144  0.03676088    -0.21600
C1559       C  0.99938390  0.30733905  0.06266997    -0.09700
C1560       C  0.97530337  0.32849322  0.07337012     0.29200
F1561       F  0.95481531  0.32181116  0.09717236    -0.20200
H1562       H  0.95153396  0.37178979  0.06734066     0.17600
H1563       H  0.03754518  0.29850009  0.02807486     0.17600
F1564       F  0.03349046  0.34872509  0.99692683    -0.20200
C1565       C  0.06012285  0.22733844  0.16378035    -0.21600
C1566       C  0.05030227  0.25273902  0.14595387    -0.09700
C1567       C  0.06256218  0.28154065  0.15338739     0.29200
C1568       C  0.08557479  0.28446399  0.17725391    -0.21600
C1569       C  0.09702458  0.25868925  0.19366632    -0.09700
C1570       C  0.08341861  0.23017838  0.18729973     0.29200
F1571       F  0.09325828  0.20494982  0.20330217    -0.20200
H1572       H  0.05025716  0.20504813  0.15907772     0.17600
H1573       H  0.09614172  0.30656413  0.18151154     0.17600
F1574       F  0.05431439  0.30641727  0.13622407    -0.20200
C1575       C  0.03961546  0.18240630  0.04710944    -0.21600
C1576       C  0.00761498  0.19455456  0.05409190    -0.09700
C1577       C  0.97989786  0.18249315  0.03869114     0.29200
C1578       C  0.98357337  0.15538076  0.02204081    -0.21600
C1579       C  0.01494115  0.14080137  0.01976406    -0.09700
C1580       C  0.04324860  0.15540438  0.03058238     0.29200
F1581       F  0.07416389  0.14241172  0.02695069    -0.20200
H1582       H  0.06193861  0.19302342  0.05535005     0.17600
H1583       H  0.96160400  0.14462915  0.01303698     0.17600
F1584       F  0.94917750  0.19616896  0.04039670    -0.20200
C1585       C  0.02643038  0.32861624  0.57298199    -0.21600
C1586       C  0.99657315  0.31315951  0.57762022    -0.09700
C1587       C  0.96690261  0.32671404  0.56563177     0.29200
C1588       C  0.96670905  0.35635990  0.55335897    -0.21600
C1589       C  0.99625333  0.37284137  0.55160857    -0.09700
C1590       C  0.02638667  0.35783740  0.56039073     0.29200
F1591       F  0.05623419  0.37144098  0.55762278    -0.20200
H1592       H  0.05031566  0.31883138  0.57937782     0.17600
H1593       H  0.94324862  0.36661224  0.54584790     0.17600
F1594       F  0.93761741  0.31195846  0.56739121    -0.20200
C1595       C  0.00053907  0.17630857  0.60142982    -0.21600
C1596       C  0.97858295  0.19849703  0.58903720    -0.09700
C1597       C  0.95421008  0.18955123  0.56786601     0.29200
C1598       C  0.95238454  0.15875397  0.55905840    -0.21600
C1599       C  0.97504750  0.13690635  0.57112328    -0.09700
C1600       C  0.99894353  0.14592606  0.59251743     0.29200
F1601       F  0.02136645  0.12531424  0.60424737    -0.20200
H1602       H  0.01967738  0.18258316  0.61760387     0.17600
H1603       H  0.93425622  0.15217054  0.54201469     0.17600
F1604       F  0.93224909  0.21040516  0.55593538    -0.20200
C1605       C  0.10812006  0.21288465  0.65083892    -0.21600
C1606       C  0.10901686  0.21553416  0.68297857    -0.09700
C1607       C  0.08015412  0.22579690  0.69878431     0.29200
C1608       C  0.05152591  0.23490731  0.68254729    -0.21600
C1609       C  0.05172062  0.23492524  0.65036556    -0.09700
C1610       C  0.07975017  0.22277874  0.63452978     0.29200
F1611       F  0.08032854  0.22203428  0.60331176    -0.20200
H1612       H  0.13041696  0.20590781  0.63824505     0.17600
H1613       H  0.03010502  0.24417558  0.69501244     0.17600
F1614       F  0.08089339  0.23003506  0.72972044    -0.20200
C1615       C  0.24617356  0.28981169  0.59760746    -0.21600
C1616       C  0.22417414  0.29891925  0.62112891    -0.09700
C1617       C  0.20260706  0.32439938  0.61659700     0.29200
C1618       C  0.20524425  0.34185766  0.58998586    -0.21600
C1619       C  0.22941176  0.33420466  0.56754274    -0.09700
C1620       C  0.24898108  0.30722207  0.57126584     0.29200
F1621       F  0.27237197  0.29854165  0.55009065    -0.20200
H1622       H  0.26258184  0.26993953  0.60019362     0.17600
H1623       H  0.18915561  0.36184376  0.58811410     0.17600
F1624       F  0.18045334  0.33372716  0.63859250    -0.20200
C1625       C  0.23651640  0.22157709  0.91356161    -0.21600
C1626       C  0.26138052  0.21182053  0.89258428    -0.09700
C1627       C  0.28966333  0.19588314  0.90363716     0.29200
C1628       C  0.29109217  0.18695012  0.93435825    -0.21600
C1629       C  0.26401428  0.19321027  0.95446438    -0.09700
C1630       C  0.23775830  0.21244783  0.94408216     0.29200
F1631       F  0.21178084  0.22038976  0.96284173    -0.20200
H1632       H  0.21484676  0.23484350  0.90609891     0.17600
H1633       H  0.31302320  0.17409945  0.94127117     0.17600
F1634       F  0.31534445  0.18774120  0.88464316    -0.20200
C1635       C  0.53089989  0.31243750  0.93384743    -0.21600
C1636       C  0.50267166  0.30241824  0.91809484    -0.09700
C1637       C  0.47833985  0.32377768  0.90822830     0.29200
C1638       C  0.48121532  0.35447991  0.91563693    -0.21600
C1639       C  0.50874732  0.36450384  0.93231532    -0.09700
C1640       C  0.53422813  0.34349185  0.94057037     0.29200
F1641       F  0.56100886  0.35265272  0.95687828    -0.20200
H1642       H  0.54994005  0.29614196  0.94138965     0.17600
H1643       H  0.46127875  0.37040161  0.90925118     0.17600
F1644       F  0.45068055  0.31478059  0.89317144    -0.20200
C1645       C  0.45099490  0.18268467  0.96280933    -0.21600
C1646       C  0.48136072  0.19518184  0.95337719    -0.09700
C1647       C  0.51097443  0.18463558  0.96798050     0.29200
C1648       C  0.51075173  0.15878497  0.98681399    -0.21600
C1649       C  0.48089092  0.14379684  0.99213236    -0.09700
C1650       C  0.45078412  0.15715694  0.98179435     0.29200
F1651       F  0.42120809  0.14426195  0.98846665    -0.20200
H1652       H  0.42717911  0.19153657  0.95501013     0.17600
H1653       H  0.53420385  0.14909159  0.99505315     0.17600
F1654       F  0.54058769  0.19771947  0.96194263    -0.20200
C1655       C  0.42775020  0.25513988  0.83360659    -0.21600
C1656       C  0.42576317  0.25518783  0.86581700    -0.09700
C1657       C  0.39539739  0.26408646  0.88007391     0.29200
C1658       C  0.36694269  0.27032165  0.86236863    -0.21600
C1659       C  0.36837409  0.26809202  0.83024992    -0.09700
C1660       C  0.39913856  0.26111798  0.81590199     0.29200
F1661       F  0.40086359  0.25778722  0.78487886    -0.20200
H1662       H  0.45090013  0.24851486  0.82221289     0.17600
H1663       H  0.34329399  0.27495124  0.87381330     0.17600
F1664       F  0.39302473  0.26589365  0.91118787    -0.20200
C1665       C  0.56073918  0.03581096  0.33487203    -0.21600
C1666       C  0.57177167  0.00826616  0.32063845    -0.09700
C1667       C  0.55842603  0.98098135  0.33245510     0.29200
C1668       C  0.53858149  0.98122634  0.35948909    -0.21600
C1669       C  0.53065234  0.00869710  0.37503814    -0.09700
C1670       C  0.54099387  0.03603072  0.36158558     0.29200
F1671       F  0.53206518  0.06330181  0.37450788    -0.20200
H1672       H  0.56689975  0.05770046  0.32547251     0.17600
H1673       H  0.53059390  0.95978126  0.36893908     0.17600
F1674       F  0.56496378  0.95386970  0.31826122    -0.20200
C1675       C  0.59149257  0.03377237  0.18558824    -0.21600
C1676       C  0.58432049  0.00838990  0.20400897    -0.09700
C1677       C  0.56388216  0.98583193  0.19185590     0.29200
C1678       C  0.55205320  0.98803852  0.16154454    -0.21600
C1679       C  0.55921961  0.01333736  0.14290779    -0.09700
C1680       C  0.57860566  0.03657615  0.15557098     0.29200
F1681       F  0.58592468  0.06153872  0.13870755    -0.20200
H1682       H  0.60679822  0.05168339  0.19463983     0.17600
H1683       H  0.53697266  0.96989403  0.15263891     0.17600
F1684       F  0.55598463  0.96125941  0.20906670    -0.20200
C1685       C  0.69294834  0.09910522  0.22773443    -0.21600
C1686       C  0.67458375  0.12626303  0.23418253    -0.09700
C1687       C  0.64310413  0.12393183  0.24820499     0.29200
C1688       C  0.63080252  0.09553605  0.25640708    -0.21600
C1689       C  0.64964447  0.06835195  0.25161064    -0.09700
C1690       C  0.68066644  0.07037032  0.23638827     0.29200
F1691       F  0.70003492  0.04492906  0.23160706    -0.20200
H1692       H  0.71763476  0.10025464  0.21770995     0.17600
H1693       H  0.60640134  0.09497117  0.26709114     0.17600
F1694       F  0.62456522  0.14945070  0.25506116    -0.20200
C1695       C  0.58611077  0.22421572  0.30714586    -0.21600
C1696       C  0.60413732  0.25101097  0.30468168    -0.09700
C1697       C  0.59312243  0.27747532  0.32044515     0.29200
C1698       C  0.56548160  0.27649209  0.33981813    -0.21600
C1699       C  0.54821667  0.24934312  0.34330426    -0.09700
C1700       C  0.55796794  0.22344866  0.32593155     0.29200
F1701       F  0.54032153  0.19747679  0.32701482    -0.20200
H1702       H  0.59390611  0.20386851  0.29455091     0.17600
H1703       H  0.55851546  0.29662996  0.35309083     0.17600
F1704       F  0.61019375  0.30374734  0.31857640    -0.20200
C1705       C  0.90728678  0.24805705  0.12347208    -0.21600
C1706       C  0.93952522  0.25346226  0.13430555    -0.09700
C1707       C  0.94379912  0.26201682  0.16531947     0.29200
C1708       C  0.91615816  0.26434157  0.18515435    -0.21600
C1709       C  0.88408136  0.25882516  0.17405640    -0.09700
C1710       C  0.87981240  0.25082842  0.14307320     0.29200
F1711       F  0.84906717  0.24456418  0.13206989    -0.20200
H1712       H  0.90339107  0.24145997  0.09974347     0.17600
H1713       H  0.91975390  0.27028340  0.20909825     0.17600
F1714       F  0.97467412  0.26677280  0.17680041    -0.20200
C1715       C  0.90405433  0.52001000  0.36217726    -0.21600
C1716       C  0.93878899  0.51567171  0.36244052    -0.09700
C1717       C  0.95566001  0.51211023  0.33416405     0.29200
C1718       C  0.93792295  0.51246389  0.30623651    -0.21600
C1719       C  0.90278977  0.51566941  0.30590621    -0.09700
C1720       C  0.88623208  0.51941322  0.33457119     0.29200
F1721       F  0.85241261  0.52157207  0.33608758    -0.20200
H1722       H  0.89040392  0.52247204  0.38362953     0.17600
H1723       H  0.95191485  0.50898013  0.28523016     0.17600
F1724       F  0.98935314  0.50820744  0.33354205    -0.20200
C1725       C  0.91594948  0.53139979  0.17879028    -0.21600
C1726       C  0.88907732  0.51259608  0.18656599    -0.09700
C1727       C  0.87312115  0.49740195  0.16221929     0.29200
C1728       C  0.88478131  0.49968585  0.13182661    -0.21600
C1729       C  0.91203613  0.51782041  0.12425267    -0.09700
C1730       C  0.92713253  0.53419212  0.14814120     0.29200
F1731       F  0.95366342  0.55183948  0.14217352    -0.20200
H1732       H  0.92842707  0.54420943  0.19646591     0.17600
H1733       H  0.87255684  0.48676904  0.11402725     0.17600
F1734       F  0.84686377  0.47934453  0.16747225    -0.20200
C1735       C  0.82977343  0.42990000  0.22464918    -0.21600
C1736       C  0.82413161  0.44870601  0.25037936    -0.09700
C1737       C  0.80729288  0.43623194  0.27582860     0.29200
C1738       C  0.79741306  0.40562643  0.27574508    -0.21600
C1739       C  0.80392700  0.38640034  0.25031156    -0.09700
C1740       C  0.81977188  0.39934625  0.22439526     0.29200
F1741       F  0.82683799  0.38231031  0.19897619    -0.20200
H1742       H  0.84369974  0.43826684  0.20527801     0.17600
H1743       H  0.78478847  0.39693873  0.29581575     0.17600
F1744       F  0.80100314  0.45356098  0.30122070    -0.20200
C1745       C  0.21652550  0.81636116  0.55940050    -0.21600
C1746       C  0.24653334  0.82758367  0.54819755    -0.09700
C1747       C  0.27499432  0.82643886  0.56687240     0.29200
C1748       C  0.27328835  0.81420433  0.59655190    -0.21600
C1749       C  0.24311888  0.80294169  0.60800818    -0.09700
C1750       C  0.21462956  0.80429383  0.58898362     0.29200
F1751       F  0.18465474  0.79455790  0.59901884    -0.20200
H1752       H  0.19426828  0.81750543  0.54532961     0.17600
H1753       H  0.29568084  0.81331229  0.61044190     0.17600
F1754       F  0.30451858  0.83654210  0.55622822    -0.20200
C1755       C  0.15383680  0.88316846  0.52962916    -0.21600
C1756       C  0.18185331  0.89932819  0.52008694    -0.09700
C1757       C  0.18172906  0.93109941  0.52388135     0.29200
C1758       C  0.15251661  0.94669910  0.53363430    -0.21600
C1759       C  0.12349439  0.93070194  0.54068952    -0.09700
C1760       C  0.12502224  0.89868528  0.54027548     0.29200
F1761       F  0.09744486  0.88261702  0.54687170    -0.20200
H1762       H  0.15358360  0.85859278  0.52706004     0.17600
H1763       H  0.15163555  0.97141854  0.53311033     0.17600
F1764       F  0.20860692  0.94720045  0.51520861    -0.20200
C1765       C  0.34394152  0.93284490  0.46813507    -0.21600
C1766       C  0.36205469  0.93168939  0.49579497    -0.09700
C1767       C  0.34808196  0.91621905  0.52102320     0.29200
C1768       C  0.31732038  0.90214256  0.51838301    -0.21600
C1769       C  0.29954325  0.90270066  0.49066214    -0.09700
C1770       C  0.31304917  0.91871628  0.46554746     0.29200
F1771       F  0.29614563  0.92146149  0.43863976    -0.20200
H1772       H  0.35344437  0.94508828  0.44851114     0.17600
H1773       H  0.30785260  0.89016746  0.53809610     0.17600
F1774       F  0.36423869  0.91416584  0.54837014    -0.20200
C1775       C  0.23543486  0.80299366  0.42606278    -0.21600
C1776       C  0.22504823  0.83331207  0.43250381    -0.09700
C1777       C  0.21341099  0.85164542  0.40779039     0.29200
C1778       C  0.21315219  0.84022837  0.37773614    -0.21600
C1779       C  0.22551562  0.81071148  0.37140512    -0.09700
C1780       C  0.23580450  0.79187807  0.39591770     0.29200
F1781       F  0.24744765  0.76295279  0.39058669    -0.20200
H1782       H  0.24545128  0.78815335  0.44371011     0.17600
H1783       H  0.20540678  0.85520980  0.35914306     0.17600
F1784       F  0.20437446  0.88139008  0.41231817    -0.20200
C1785       C  0.35088529  0.59515313  0.25989956    -0.21600
C1786       C  0.33604752  0.56723343  0.25332528    -0.09700
C1787       C  0.30147639  0.56730559  0.24750076     0.29200
C1788       C  0.28273526  0.59508041  0.24630166    -0.21600
C1789       C  0.29834267  0.62316462  0.25057594    -0.09700
C1790       C  0.33237079  0.62269582  0.25871442     0.29200
F1791       F  0.34810181  0.64915497  0.26449759    -0.20200
H1792       H  0.37747571  0.59577453  0.26418164     0.17600
H1793       H  0.25660329  0.59474702  0.24011350     0.17600
F1794       F  0.28644340  0.54081773  0.24052812    -0.20200
C1795       C  0.18382730  0.94937955  0.22862412    -0.21600
C1796       C  0.18140200  0.96075970  0.25897297    -0.09700
C1797       C  0.19711739  0.94337277  0.28245559     0.29200
C1798       C  0.21139628  0.91439291  0.27630990    -0.21600
C1799       C  0.21180317  0.90202874  0.24647348    -0.09700
C1800       C  0.19900159  0.92039717  0.22235727     0.29200
F1801       F  0.19861852  0.90935140  0.19318274    -0.20200
H1802       H  0.17186464  0.96187847  0.21004341     0.17600
H1803       H  0.22123225  0.90098855  0.29530618     0.17600
F1804       F  0.19711942  0.95367426  0.31194306    -0.20200
C1805       C  0.08454701  0.72396931  0.35680246    -0.21600
C1806       C  0.05770717  0.74292607  0.34727135    -0.09700
C1807       C  0.05954166  0.75794034  0.31896779     0.29200
C1808       C  0.08870078  0.75562949  0.30137308    -0.21600
C1809       C  0.11645591  0.73826176  0.31170620    -0.09700
C1810       C  0.11377747  0.72145811  0.33904625     0.29200
F1811       F  0.14041501  0.70518119  0.35006725    -0.20200
H1812       H  0.08377097  0.71297787  0.37908101     0.17600
H1813       H  0.09028984  0.76878169  0.28038078     0.17600
F1814       F  0.03428320  0.77702461  0.30976006    -0.20200
C1815       C  0.99077975  0.64322089  0.41559153    -0.21600
C1816       C  0.01591142  0.63412544  0.43644755    -0.09700
C1817       C  0.03657365  0.65663929  0.44856112     0.29200
C1818       C  0.03146708  0.68746630  0.44041050    -0.21600
C1819       C  0.00584657  0.69654942  0.41989587    -0.09700
C1820       C  0.98587056  0.67381676  0.40731647     0.29200
F1821       F  0.96071652  0.68102079  0.38774838    -0.20200
H1822       H  0.97431576  0.62651879  0.40592704     0.17600
H1823       H  0.04785638  0.70424050  0.45000290     0.17600
F1824       F  0.06077512  0.64914041  0.46917560    -0.20200
C1825       C  0.00734871  0.81562511  0.46274814    -0.21600
C1826       C  0.01877551  0.81267584  0.43215692    -0.09700
C1827       C  0.02936441  0.83927162  0.41690131     0.29200
C1828       C  0.02837428  0.86745597  0.43163245    -0.21600
C1829       C  0.01511390  0.87051906  0.46122937    -0.09700
C1830       C  0.00532246  0.84431351  0.47711657     0.29200
F1831       F  0.99273684  0.84659462  0.50607844    -0.20200
H1832       H  0.99776774  0.79627775  0.47496189     0.17600
H1833       H  0.03550904  0.88743464  0.41880801     0.17600
F1834       F  0.03798116  0.83882591  0.38668923    -0.20200
C1835       C  0.69679595  0.20017586  0.41546929    -0.21600
C1836       C  0.72680764  0.19170154  0.43019186    -0.09700
C1837       C  0.75583180  0.20773897  0.42219097     0.29200
C1838       C  0.75555900  0.22834514  0.39752231    -0.21600
C1839       C  0.72620883  0.23410917  0.38087570    -0.09700
C1840       C  0.69642691  0.22115472  0.39133748     0.29200
F1841       F  0.66714882  0.22700425  0.37654150    -0.20200
H1842       H  0.67338970  0.19042090  0.42181991     0.17600
H1843       H  0.77884861  0.23783802  0.38995576     0.17600
F1844       F  0.78505996  0.20221154  0.43714239    -0.20200
C1845       C  0.80550880  0.09599708  0.50423809    -0.21600
C1846       C  0.79315468  0.10272991  0.47484783    -0.09700
C1847       C  0.81230716  0.09281471  0.44914294     0.29200
C1848       C  0.84380559  0.07845726  0.45320438    -0.21600
C1849       C  0.85663792  0.07316171  0.48286426    -0.09700
C1850       C  0.83640300  0.08149947  0.50834792     0.29200
F1851       F  0.84634651  0.07632456  0.53771738    -0.20200
H1852       H  0.79194490  0.10270990  0.52466626     0.17600
H1853       H  0.85818190  0.07164068  0.43309174     0.17600
F1854       F  0.80061669  0.09647413  0.42010096    -0.20200
C1855       C  0.64854050  0.12445003  0.51478217    -0.21600
C1856       C  0.67380367  0.10902853  0.49782403    -0.09700
C1857       C  0.67330189  0.07713865  0.49579045     0.29200
C1858       C  0.64674175  0.06125792  0.50852349    -0.21600
C1859       C  0.62028831  0.07667956  0.52406219    -0.09700
C1860       C  0.62208887  0.10847367  0.52800221     0.29200
F1861       F  0.59715282  0.12436724  0.54253719    -0.20200
H1862       H  0.64895689  0.14900666  0.51724963     0.17600
H1863       H  0.64596501  0.03682272  0.50487966     0.17600
F1864       F  0.69761685  0.06146838  0.48013472    -0.20200
C1865       C  0.18599910  0.56380002  0.72624765    -0.21600
C1866       C  0.17111104  0.55373211  0.75379148    -0.09700
C1867       C  0.18032932  0.56831232  0.78144832     0.29200
C1868       C  0.19881484  0.59488605  0.78068831    -0.21600
C1869       C  0.21039024  0.60665303  0.75274605    -0.09700
C1870       C  0.20522135  0.59003178  0.72563178     0.29200
F1871       F  0.21678021  0.60019486  0.69824512    -0.20200
H1872       H  0.18220009  0.55174746  0.70484353     0.17600
H1873       H  0.20356050  0.60674516  0.80207937     0.17600
F1874       F  0.17233309  0.55691531  0.80938958    -0.20200
C1875       C  0.15383639  0.41794851  0.73066103    -0.21600
C1876       C  0.16714537  0.43943916  0.75075326    -0.09700
C1877       C  0.19598046  0.43144714  0.76767503     0.29200
C1878       C  0.21069410  0.40227745  0.76476648    -0.21600
C1879       C  0.19705339  0.38048041  0.74495982    -0.09700
C1880       C  0.16863417  0.38894221  0.72748669     0.29200
F1881       F  0.15471573  0.36924281  0.70742963    -0.20200
H1882       H  0.13200579  0.42365566  0.71702814     0.17600
H1883       H  0.23230214  0.39654908  0.77871739     0.17600
F1884       F  0.20923127  0.45132564  0.78796742    -0.20200
C1885       C  0.09397401  0.47455483  0.63954164    -0.21600
C1886       C  0.06252247  0.48839973  0.63376386    -0.09700
C1887       C  0.04454920  0.50104400  0.65902881     0.29200
C1888       C  0.05870743  0.50171786  0.68854824    -0.21600
C1889       C  0.09088690  0.48961527  0.69377655    -0.09700
C1890       C  0.10815625  0.47541031  0.66912914     0.29200
F1891       F  0.13973711  0.46425949  0.67319059    -0.20200
H1892       H  0.10848252  0.46466173  0.62078906     0.17600
H1893       H  0.04513010  0.51306344  0.70708294     0.17600
F1894       F  0.01354890  0.51363189  0.65510543    -0.20200
C1895       C  0.08554592  0.46238356  0.82210837    -0.21600
C1896       C  0.08214693  0.48997265  0.80560762    -0.09700
C1897       C  0.06018736  0.51276490  0.81724781     0.29200
C1898       C  0.04421860  0.50906861  0.84558972    -0.21600
C1899       C  0.04945058  0.48259041  0.86346050    -0.09700
C1900       C  0.06932984  0.45864655  0.85080075     0.29200
F1901       F  0.07515491  0.43271248  0.86709862    -0.20200
H1902       H  0.10246499  0.44451334  0.81378574     0.17600
H1903       H  0.02858334  0.52773556  0.85418095     0.17600
F1904       F  0.05523551  0.53937342  0.80177776    -0.20200
C1905       C  0.26499066  0.65843835  0.91545823    -0.21600
C1906       C  0.23591946  0.65981716  0.93333311    -0.09700
C1907       C  0.20684365  0.67395707  0.92170872     0.29200
C1908       C  0.20704943  0.68670072  0.89225194    -0.21600
C1909       C  0.23646784  0.68588358  0.87458849    -0.09700
C1910       C  0.26541667  0.67145531  0.88633588     0.29200
F1911       F  0.29389657  0.66935951  0.86938828    -0.20200
H1912       H  0.28749245  0.64743004  0.92416841     0.17600
H1913       H  0.18452409  0.69774318  0.88349211     0.17600
F1914       F  0.17840557  0.67520843  0.93871082    -0.20200
C1915       C  0.16938978  0.58554833  0.96437828    -0.21600
C1916       C  0.18959587  0.58300749  0.99066888    -0.09700
C1917       C  0.18018601  0.56332578  0.01438230     0.29200
C1918       C  0.15039820  0.54770300  0.01244515    -0.21600
C1919       C  0.12895093  0.55151655  0.98699084    -0.09700
C1920       C  0.13923339  0.57014619  0.96253732     0.29200
F1921       F  0.11969927  0.57450850  0.93739757    -0.20200
H1922       H  0.17606229  0.60075286  0.94589290     0.17600
H1923       H  0.14371016  0.53329667  0.03157005     0.17600
F1924       F  0.19950758  0.55959028  0.03977434    -0.20200
C1925       C  0.33462537  0.61289922  0.95983992    -0.21600
C1926       C  0.30661612  0.59518676  0.96546834    -0.09700
C1927       C  0.30805152  0.56395471  0.95819550     0.29200
C1928       C  0.33864152  0.54999940  0.94973475    -0.21600
C1929       C  0.36749758  0.56736690  0.94733695    -0.09700
C1930       C  0.36474751  0.59917654  0.95042524     0.29200
F1931       F  0.39218741  0.61649363  0.94795891    -0.20200
H1932       H  0.33368352  0.63719250  0.96456797     0.17600
H1933       H  0.34045884  0.52535923  0.94786122     0.17600
F1934       F  0.28095160  0.54651989  0.96236464    -0.20200
C1935       C  0.23846609  0.69033425  0.05285191    -0.21600
C1936       C  0.25391663  0.66135529  0.04891330    -0.09700
C1937       C  0.27036768  0.64805818  0.07459397     0.29200
C1938       C  0.27248462  0.66399025  0.10256179    -0.21600
C1939       C  0.25692468  0.69283649  0.10609809    -0.09700
C1940       C  0.24008914  0.70590084  0.08077622     0.29200
F1941       F  0.22451530  0.73372531  0.08305121    -0.20200
H1942       H  0.22370384  0.70088581  0.03487479     0.17600
H1943       H  0.28488154  0.65311117  0.12191112     0.17600
F1944       F  0.28344492  0.61920739  0.07313626    -0.20200
C1945       C  0.77800848  0.30614656  0.06163264    -0.21600
C1946       C  0.74980397  0.30315650  0.04332544    -0.09700
C1947       C  0.72515310  0.28251332  0.05188095     0.29200
C1948       C  0.72742502  0.26720496  0.08007901    -0.21600
C1949       C  0.75441909  0.27227786  0.09973029    -0.09700
C1950       C  0.78056741  0.29072009  0.08947389     0.29200
F1951       F  0.80790483  0.29517573  0.10715614    -0.20200
H1952       H  0.79778947  0.32092729  0.05466685     0.17600
H1953       H  0.70706264  0.25318648  0.08742997     0.17600
F1954       F  0.69787233  0.27878303  0.03397198    -0.20200
C1955       C  0.79162849  0.41832025  0.97598422    -0.21600
C1956       C  0.78736472  0.39622130  0.99897098    -0.09700
C1957       C  0.80817006  0.39675747  0.02490440     0.29200
C1958       C  0.83426385  0.41736457  0.02646635    -0.21600
C1959       C  0.84017037  0.43790770  0.00224401    -0.09700
C1960       C  0.81766642  0.43880738  0.97740860     0.29200
F1961       F  0.82169599  0.45825974  0.95353027    -0.20200
H1962       H  0.77536958  0.41907480  0.95612613     0.17600
H1963       H  0.85081286  0.41618849  0.04610588     0.17600
F1964       F  0.80492714  0.37612751  0.04777792    -0.20200
C1965       C  0.67937950  0.41029759  0.02720560    -0.21600
C1966       C  0.67675279  0.37915558  0.02059622    -0.09700
C1967       C  0.64524024  0.36582398  0.02122504     0.29200
C1968       C  0.61649730  0.38420318  0.02413954    -0.21600
C1969       C  0.61897963  0.41585736  0.02702907    -0.09700
C1970       C  0.65049149  0.42871474  0.03033660     0.29200
F1971       F  0.65329974  0.45938845  0.03305471    -0.20200
H1972       H  0.70349769  0.42085587  0.02660239     0.17600
H1973       H  0.59231384  0.37406840  0.02146681     0.17600
F1974       F  0.64220375  0.33552792  0.01560938    -0.20200
C1975       C  0.28489235  0.93377431  0.75489061    -0.21600
C1976       C  0.32024521  0.93382925  0.75525891    -0.09700
C1977       C  0.33755792  0.90543861  0.75477152     0.29200
C1978       C  0.32042276  0.87832735  0.75280721    -0.21600
C1979       C  0.28538808  0.87830489  0.75179820    -0.09700
C1980       C  0.26766197  0.90630991  0.75333991     0.29200
F1981       F  0.23381171  0.90725439  0.75246915    -0.20200
H1982       H  0.27000099  0.95455415  0.75616974     0.17600
H1983       H  0.33484531  0.85706628  0.75210635     0.17600
F1984       F  0.37139454  0.90383190  0.75628627    -0.20200
C1985       C  0.33698326  0.07240682  0.77780728    -0.21600
C1986       C  0.32670097  0.05002567  0.75722013    -0.09700
C1987       C  0.30049115  0.05733360  0.73662134     0.29200
C1988       C  0.28356687  0.08565812  0.73829024    -0.21600
C1989       C  0.29262895  0.10755287  0.76015066    -0.09700
C1990       C  0.32028370  0.10077042  0.77943177     0.29200
F1991       F  0.33150913  0.12142560  0.80001313    -0.20200
H1992       H  0.35747694  0.06775773  0.79332800     0.17600
H1993       H  0.26335614  0.09040785  0.72237536     0.17600
F1994       F  0.29146516  0.03727423  0.71449715    -0.20200
C1995       C  0.38990883  0.01770420  0.84136978    -0.21600
C1996       C  0.39651172  0.99198278  0.82282446    -0.09700
C1997       C  0.41510601  0.96738736  0.83564166     0.29200
C1998       C  0.42610721  0.96831135  0.86628258    -0.21600
C1999       C  0.41900123  0.99377956  0.88521922    -0.09700
C2000       C  0.40094153  0.01873155  0.87209563     0.29200
F2001       F  0.39281229  0.04383188  0.88913454    -0.20200
H2002       H  0.37473595  0.03646329  0.83263215     0.17600
H2003       H  0.44027997  0.94890397  0.87517724     0.17600
F2004       F  0.42216497  0.94204368  0.81855732    -0.20200
C2005       C  0.43054552  0.97008970  0.69724847    -0.21600
C2006       C  0.41502040  0.99531135  0.71213470    -0.09700
C2007       C  0.42212517  0.02469762  0.70086865     0.29200
C2008       C  0.44163162  0.02817482  0.67387257    -0.21600
C2009       C  0.45418947  0.00250027  0.65747589    -0.09700
C2010       C  0.44920524  0.97346808  0.67026145     0.29200
F2011       F  0.46085829  0.94791628  0.65560770    -0.20200
H2012       H  0.42682404  0.94719355  0.70563804     0.17600
H2013       H  0.44473233  0.05080778  0.66455053     0.17600
F2014       F  0.40816705  0.04993866  0.71430438    -0.20200
C2015       C  0.40959025  0.76094944  0.18783254    -0.21600
C2016       C  0.38448770  0.78018386  0.17527338    -0.09700
C2017       C  0.39165396  0.79702894  0.14871025     0.29200
C2018       C  0.42219576  0.79215324  0.13336330    -0.21600
C2019       C  0.44591511  0.77076832  0.14453544    -0.09700
C2020       C  0.44007537  0.75632018  0.17267317     0.29200
F2021       F  0.46263216  0.73561568  0.18398418    -0.20200
H2022       H  0.40469632  0.74786086  0.20838943     0.17600
H2023       H  0.42598125  0.80289172  0.11127240     0.17600
F2024       F  0.36787142  0.81541402  0.13570712    -0.20200
C2025       C  0.50783175  0.65795968  0.02557360    -0.21600
C2026       C  0.48567714  0.63562821  0.03515366    -0.09700
C2027       C  0.46211769  0.64308618  0.05821601     0.29200
C2028       C  0.46221915  0.67163411  0.07255919    -0.21600
C2029       C  0.48566417  0.69354413  0.06416499    -0.09700
C2030       C  0.50788154  0.68647952  0.03977524     0.29200
F2031       F  0.53085108  0.70674779  0.03051132    -0.20200
H2032       H  0.52596278  0.65308839  0.00758303     0.17600
H2033       H  0.44483491  0.67537254  0.09119894     0.17600
F2034       F  0.44017269  0.62226872  0.06832962    -0.20200
C2035       C  0.48746867  0.83387139  0.07891639    -0.21600
C2036       C  0.49896229  0.80803735  0.06259759    -0.09700
C2037       C  0.51083486  0.81172385  0.03218504     0.29200
C2038       C  0.51138416  0.84081213  0.01880663    -0.21600
C2039       C  0.50064378  0.86647925  0.03569848    -0.09700
C2040       C  0.48834640  0.86273271  0.06572375     0.29200
F2041       F  0.47699212  0.88718430  0.08234455    -0.20200
H2042       H  0.47752568  0.83186847  0.10195696     0.17600
H2043       H  0.52129260  0.84341772  0.99579065     0.17600
F2044       F  0.52329026  0.78757059  0.01583447    -0.20200
C2045       C  0.65957057  0.95842421  0.97262518    -0.21600
C2046       C  0.64184751  0.95607751  0.00051623    -0.09700
C2047       C  0.65475017  0.93681918  0.02367735     0.29200
C2048       C  0.68255712  0.91804432  0.01775247    -0.21600
C2049       C  0.69874997  0.91879829  0.98927515    -0.09700
C2050       C  0.68784147  0.93991247  0.96702296     0.29200
F2051       F  0.70364451  0.94165129  0.93944134    -0.20200
H2052       H  0.65057188  0.97331339  0.95443422     0.17600
H2053       H  0.68971902  0.90136689  0.03470224     0.17600
F2054       F  0.63955181  0.93478069  0.05150298    -0.20200
C2055       C  0.84604831  0.89538504  0.97412533    -0.21600
C2056       C  0.81551472  0.90780444  0.98491782    -0.09700
C2057       C  0.81492581  0.93643133  0.99955891     0.29200
C2058       C  0.84458705  0.95210348  0.00332552    -0.21600
C2059       C  0.87490884  0.93976432  0.99185675    -0.09700
C2060       C  0.87521337  0.91134231  0.97686531     0.29200
F2061       F  0.90378485  0.89847847  0.96530774    -0.20200
H2062       H  0.84756939  0.87301932  0.96349005     0.17600
H2063       H  0.84375053  0.97414800  0.01466496     0.17600
F2064       F  0.78580778  0.94979242  0.00918589    -0.20200
C2065       C  0.76934989  0.80415201  0.08004108    -0.21600
C2066       C  0.75419759  0.82169641  0.10365619    -0.09700
C2067       C  0.73914995  0.84991800  0.09634536     0.29200
C2068       C  0.73971737  0.86045582  0.06606295    -0.21600
C2069       C  0.75395123  0.84266512  0.04211278    -0.09700
C2070       C  0.76917379  0.81434530  0.04962092     0.29200
F2071       F  0.78538474  0.79709356  0.02802859    -0.20200
H2072       H  0.78153678  0.78239707  0.08516282     0.17600
H2073       H  0.72928638  0.88284666  0.06181786     0.17600
F2074       F  0.72517848  0.86793560  0.11860559    -0.20200
C2075       C  0.70767943  0.91620650  0.28048920    -0.21600
C2076       C  0.71188673  0.90379250  0.25081025    -0.09700
C2077       C  0.69656260  0.91970786  0.22610725     0.29200
C2078       C  0.67599686  0.94586616  0.23122415    -0.21600
C2079       C  0.66979247  0.95708216  0.26110781    -0.09700
C2080       C  0.68705632  0.94241278  0.28564690     0.29200
F2081       F  0.68389299  0.95314916  0.31484276    -0.20200
H2082       H  0.71905590  0.90474268  0.30001769     0.17600
H2083       H  0.66360546  0.95644454  0.21173089     0.17600
F2084       F  0.70076922  0.90946077  0.19682794    -0.20200
C2085       C  0.89947643  0.79677402  0.32670621    -0.21600
C2086       C  0.87925660  0.77117127  0.32483209    -0.09700
C2087       C  0.89042440  0.74397488  0.33954606     0.29200
C2088       C  0.92111892  0.74240662  0.35475078    -0.21600
C2089       C  0.94148698  0.76771506  0.35637501    -0.09700
C2090       C  0.93016952  0.79517974  0.34229387     0.29200
F2091       F  0.94903731  0.82041624  0.34299172    -0.20200
H2092       H  0.89189626  0.81789964  0.31555306     0.17600
H2093       H  0.92838596  0.72150332  0.36615371     0.17600
F2094       F  0.87153653  0.71872209  0.33975573    -0.20200
C2095       C  0.77645828  0.60375900  0.26219620    -0.21600
C2096       C  0.78284575  0.62118406  0.23589586    -0.09700
C2097       C  0.80114422  0.60745633  0.21157639     0.29200
C2098       C  0.81477584  0.57761609  0.21462019    -0.21600
C2099       C  0.81033788  0.56105160  0.24192708    -0.09700
C2100       C  0.78968549  0.57394551  0.26508005     0.29200
F2101       F  0.78431821  0.55840458  0.29152707    -0.20200
H2102       H  0.76243707  0.61380139  0.28119217     0.17600
H2103       H  0.83109347  0.56849489  0.19673678     0.17600
F2104       F  0.80839214  0.62385112  0.18610103    -0.20200
C2105       C  0.59543529  0.76534867  0.17637085    -0.21600
C2106       C  0.62488248  0.75348978  0.16273458    -0.09700
C2107       C  0.62343572  0.74090133  0.13305932     0.29200
C2108       C  0.59296331  0.73967012  0.11762638    -0.21600
C2109       C  0.56328285  0.75094192  0.13140935    -0.09700
C2110       C  0.56479951  0.76389474  0.16098418     0.29200
F2111       F  0.53659713  0.77393540  0.17554754    -0.20200
H2112       H  0.59607189  0.77514057  0.19926341     0.17600
H2113       H  0.59260676  0.73004558  0.09465678     0.17600
F2114       F  0.65166446  0.73069389  0.11858571    -0.20200
C2115       C  0.67655954  0.58928908  0.45453193    -0.21600
C2116       C  0.68827511  0.60628523  0.47959766    -0.09700
C2117       C  0.66630367  0.61428625  0.50347377     0.29200
C2118       C  0.63329494  0.60487438  0.50256429    -0.21600
C2119       C  0.62149102  0.58724737  0.47779747    -0.09700
C2120       C  0.64355844  0.57976198  0.45356873     0.29200
F2121       F  0.63376132  0.56237369  0.42952225    -0.20200
H2122       H  0.69310937  0.58355074  0.43550888     0.17600
H2123       H  0.61699227  0.61113161  0.52159784     0.17600
F2124       F  0.67631341  0.63222476  0.52699541    -0.20200
C2125       C  0.81614964  0.57329560  0.51726547    -0.21600
C2126       C  0.80058191  0.57511368  0.48840153    -0.09700
C2127       C  0.80941001  0.55352887  0.46561623     0.29200
C2128       C  0.83566971  0.53254830  0.47060484    -0.21600
C2129       C  0.85367753  0.53291044  0.49820454    -0.09700
C2130       C  0.84288579  0.55255050  0.52206371     0.29200
F2131       F  0.86065872  0.55418691  0.54852933    -0.20200
H2132       H  0.80983263  0.58988147  0.53501523     0.17600
H2133       H  0.84417403  0.51812997  0.45170346     0.17600
F2134       F  0.79441733  0.55434830  0.43765263    -0.20200
C2135       C  0.76575781  0.66556253  0.36650235    -0.21600
C2136       C  0.76211140  0.69733602  0.36590911    -0.09700
C2137       C  0.76297060  0.71386514  0.39352269     0.29200
C2138       C  0.76651647  0.69854683  0.42159964    -0.21600
C2139       C  0.76898059  0.66637982  0.42258460    -0.09700
C2140       C  0.76855844  0.65014961  0.39437329     0.29200
F2141       F  0.76861090  0.61917332  0.39370898    -0.20200
H2142       H  0.76511702  0.65253200  0.34528810     0.17600
H2143       H  0.76547121  0.71210216  0.44234081     0.17600
F2144       F  0.76034862  0.74480326  0.39331619    -0.20200
C2145       C  0.59755393  0.47016942  0.81564821    -0.21600
C2146       C  0.59260214  0.49546256  0.79644115    -0.09700
C2147       C  0.56727476  0.51706420  0.80367749     0.29200
C2148       C  0.54779358  0.51375211  0.83022474    -0.21600
C2149       C  0.55358126  0.48905179  0.85034442    -0.09700
C2150       C  0.57815848  0.46673700  0.84217463     0.29200
F2151       F  0.58449849  0.44215851  0.86038807    -0.20200
H2152       H  0.61780456  0.45396349  0.81118242     0.17600
H2153       H  0.52937524  0.53143773  0.83584225     0.17600
F2154       F  0.56251555  0.54214671  0.78581018    -0.20200
C2155       C  0.55588772  0.53484639  0.65205621    -0.21600
C2156       C  0.54871880  0.50721253  0.63725032    -0.09700
C2157       C  0.56104701  0.47982476  0.65035091     0.29200
C2158       C  0.58182395  0.48039944  0.67643426    -0.21600
C2159       C  0.59044761  0.50820915  0.69026644    -0.09700
C2160       C  0.57598023  0.53541490  0.67840162     0.29200
F2161       F  0.58120698  0.56271353  0.69213924    -0.20200
H2162       H  0.54642663  0.55627848  0.64273283     0.17600
H2163       H  0.59242678  0.45906196  0.68489393     0.17600
F2164       F  0.55506484  0.45265247  0.63669267    -0.20200
C2165       C  0.66002859  0.38561694  0.75082430    -0.21600
C2166       C  0.69046686  0.37691980  0.73675830    -0.09700
C2167       C  0.70857453  0.39966584  0.72165856     0.29200
C2168       C  0.69695557  0.43025015  0.72191596    -0.21600
C2169       C  0.66683705  0.43899577  0.73678491    -0.09700
C2170       C  0.64821490  0.41592978  0.75066655     0.29200
F2171       F  0.61897382  0.42236626  0.76518697    -0.20200
H2172       H  0.64508166  0.36884516  0.76228728     0.17600
H2173       H  0.71166770  0.44713488  0.71036753     0.17600
F2174       F  0.73776308  0.39263028  0.70706185    -0.20200
C2175       C  0.75654671  0.29221822  0.89014547    -0.21600
C2176       C  0.72876836  0.29719869  0.87101071    -0.09700
C2177       C  0.70173412  0.31528494  0.88186298     0.29200
C2178       C  0.70243033  0.32755781  0.91144841    -0.21600
C2179       C  0.72997678  0.32194519  0.93096898    -0.09700
C2180       C  0.75733848  0.30457421  0.91952105     0.29200
F2181       F  0.78514320  0.29959275  0.93677419    -0.20200
H2182       H  0.77805878  0.27879372  0.88240946     0.17600
H2183       H  0.68140269  0.34186139  0.91815145     0.17600
F2184       F  0.67458557  0.32130892  0.86404219    -0.20200
C2185       C  0.59223315  0.24966674  0.83750251    -0.21600
C2186       C  0.60429409  0.22170307  0.82513551    -0.09700
C2187       C  0.58591777  0.19532898  0.83063773     0.29200
C2188       C  0.55586428  0.19741045  0.84738540    -0.21600
C2189       C  0.54376551  0.22568080  0.85905641    -0.09700
C2190       C  0.56267550  0.25169177  0.85419427     0.29200
F2191       F  0.55377537  0.27904140  0.86685896    -0.20200
H2192       H  0.60588532  0.27044283  0.83461411     0.17600
H2193       H  0.54208059  0.17687591  0.85135270     0.17600
F2194       F  0.59681059  0.16767743  0.81998482    -0.20200
C2195       C  0.88232118  0.28176761  0.68254836    -0.21600
C2196       C  0.86537522  0.25452363  0.67751074    -0.09700
C2197       C  0.88253388  0.22990307  0.66309976     0.29200
C2198       C  0.91540548  0.23279863  0.65340164    -0.21600
C2199       C  0.93204321  0.26024512  0.65752553    -0.09700
C2200       C  0.91538283  0.28462625  0.67281073     0.29200
F2201       F  0.93088097  0.31128688  0.67809424    -0.20200
H2202       H  0.86999041  0.30092653  0.69404677     0.17600
H2203       H  0.92713049  0.21384489  0.64112886     0.17600
F2204       F  0.86724486  0.20333798  0.65698575    -0.20200
C2205       C  0.70698528  0.19263671  0.58318213    -0.21600
C2206       C  0.73165851  0.18292453  0.60418509    -0.09700
C2207       C  0.75925995  0.16528719  0.59345712     0.29200
C2208       C  0.76193736  0.15785469  0.56232328    -0.21600
C2209       C  0.73750866  0.16809870  0.54161084    -0.09700
C2210       C  0.70993332  0.18545777  0.55219102     0.29200
F2211       F  0.68562297  0.19523515  0.53258127    -0.20200
H2212       H  0.68548805  0.20628993  0.59054965     0.17600
H2213       H  0.78344746  0.14470269  0.55434909     0.17600
F2214       F  0.78383032  0.15549333  0.61277149    -0.20200
C2215       C  0.90306955  0.02609436  0.69034090    -0.21600
C2216       C  0.90397916  0.99868085  0.70690702    -0.09700
C2217       C  0.92355285  0.97405106  0.69535879     0.29200
C2218       C  0.94141119  0.97677536  0.66753375    -0.21600
C2219       C  0.94003571  0.00409360  0.65046682    -0.09700
C2220       C  0.92067078  0.02884982  0.66250440     0.29200
F2221       F  0.91897753  0.05600297  0.64757460    -0.20200
H2222       H  0.88897879  0.04563428  0.69920477     0.17600
H2223       H  0.95563646  0.95719015  0.65892487     0.17600
F2224       F  0.92502778  0.94719544  0.71081892    -0.20200
C2225       C  0.94142352  0.97948190  0.86042312    -0.21600
C2226       C  0.93943767  0.00557118  0.87936417    -0.09700
C2227       C  0.91935297  0.03045512  0.86942550     0.29200
C2228       C  0.90082901  0.02864627  0.84203119    -0.21600
C2229       C  0.90166860  0.00196479  0.82348848    -0.09700
C2230       C  0.92340332  0.97783861  0.83281691     0.29200
F2231       F  0.92707313  0.95227133  0.81532698    -0.20200
H2232       H  0.95716259  0.96011344  0.86697321     0.17600
H2233       H  0.88640664  0.04870289  0.83559167     0.17600
F2234       F  0.91677856  0.05636137  0.88656206    -0.20200
C2235       C  0.76522183  0.07960811  0.76815343    -0.21600
C2236       C  0.76898712  0.09631981  0.74086418    -0.09700
C2237       C  0.79096766  0.08427432  0.71807323     0.29200
C2238       C  0.81077393  0.05798349  0.72375812    -0.21600
C2239       C  0.80942909  0.04321580  0.75225287    -0.09700
C2240       C  0.78520596  0.05340429  0.77384937     0.29200
F2241       F  0.78180884  0.03870741  0.80107612    -0.20200
H2242       H  0.74836002  0.08788626  0.78600171     0.17600
H2243       H  0.82872990  0.05036544  0.70656899     0.17600
F2244       F  0.79454666  0.09866545  0.69071222    -0.20200
C2245       C  0.72916239  0.58388853  0.72101018    -0.21600
C2246       C  0.73330224  0.60214937  0.74722186    -0.09700
C2247       C  0.71690836  0.59419236  0.77445683     0.29200
C2248       C  0.69506083  0.56963510  0.77480812    -0.21600
C2249       C  0.68900821  0.55230960  0.74789871    -0.09700
C2250       C  0.70793214  0.55901383  0.72142870     0.29200
F2251       F  0.70455588  0.54244759  0.69524833    -0.20200
H2252       H  0.74134878  0.58976791  0.69964078     0.17600
H2253       H  0.68282385  0.56498484  0.79629980     0.17600
F2254       F  0.71999496  0.61160151  0.80012600    -0.20200
C2255       C  0.79548093  0.68967949  0.57973004    -0.21600
C2256       C  0.77457473  0.67931086  0.60329881    -0.09700
C2257       C  0.75091675  0.65721223  0.59574296     0.29200
C2258       C  0.74738268  0.64706772  0.56535612    -0.21600
C2259       C  0.76718110  0.65844901  0.54150088    -0.09700
C2260       C  0.79204255  0.67938195  0.54931950     0.29200
F2261       F  0.81374153  0.68950175  0.52789762    -0.20200
H2262       H  0.81435711  0.70619175  0.58469946     0.17600
H2263       H  0.72847324  0.63062221  0.56058864     0.17600
F2264       F  0.73089444  0.64532322  0.61762858    -0.20200
C2265       C  0.62416842  0.73117993  0.64949623    -0.21600
C2266       C  0.63628934  0.75415242  0.66877443    -0.09700
C2267       C  0.61384860  0.77708864  0.67948173     0.29200
C2268       C  0.58007247  0.77653366  0.67141824    -0.21600
C2269       C  0.56800367  0.75361292  0.65200317    -0.09700
C2270       C  0.59063696  0.73130988  0.64059316     0.29200
F2271       F  0.58122092  0.71125446  0.61880700    -0.20200
H2272       H  0.64097335  0.71351099  0.64054742     0.17600
H2273       H  0.56336558  0.79466485  0.67957444     0.17600
F2274       F  0.62431914  0.79978434  0.69812615    -0.20200
C2275       C  0.79110238  0.89544154  0.77459401    -0.21600
C2276       C  0.79490186  0.87992957  0.74640906    -0.09700
C2277       C  0.81352302  0.89376012  0.72298163     0.29200
C2278       C  0.82863150  0.92207093  0.72810451    -0.21600
C2279       C  0.82582506  0.93699978  0.75677493    -0.09700
C2280       C  0.80599928  0.92363883  0.77969416     0.29200
F2281       F  0.80128114  0.93764847  0.80731115    -0.20200
H2282       H  0.77737653  0.88511858  0.79318597     0.17600
H2283       H  0.84398924  0.93155002  0.71016837     0.17600
F2284       F  0.81927000  0.87881756  0.69602656    -0.20200
C2285       C  0.72636530  0.81232253  0.87910205    -0.21600
C2286       C  0.75783611  0.80224683  0.86836762    -0.09700
C2287       C  0.78563084  0.80459109  0.88753868     0.29200
C2288       C  0.78214597  0.81851491  0.91623528    -0.21600
C2289       C  0.75140210  0.83215300  0.92559038    -0.09700
C2290       C  0.72297110  0.82687703  0.90752609     0.29200
F2291       F  0.69175332  0.83436199  0.91748885    -0.20200
H2292       H  0.70426606  0.80917670  0.86527153     0.17600
H2293       H  0.80407607  0.81993023  0.93061474     0.17600
F2294       F  0.81599118  0.79307783  0.87877065    -0.20200
C2295       C  0.90867573  0.76159590  0.83126471    -0.21600
C2296       C  0.89450256  0.73243587  0.82885631    -0.09700
C2297       C  0.90848455  0.70885806  0.84716947     0.29200
C2298       C  0.93494468  0.71492556  0.86778924    -0.21600
C2299       C  0.94725825  0.74468917  0.87107737    -0.09700
C2300       C  0.93400488  0.76773292  0.85211158     0.29200
F2301       F  0.94546823  0.79656571  0.85374079    -0.20200
H2302       H  0.89958413  0.78049137  0.81738160     0.17600
H2303       H  0.94482722  0.69668295  0.88214625     0.17600
F2304       F  0.89578454  0.68050675  0.84622272    -0.20200
loop_ 
_geom_bond_atom_site_label_1 
_geom_bond_atom_site_label_2 
_geom_bond_distance 
_geom_bond_site_symmetry_2 
_ccdc_geom_bond_type 
Zr1           O2   2.441       .  S
Zr1           O3   2.435       .  S
Zr1           O4   2.416       .  S
Zr1           O7   2.374       .  S
Zr1           O9   2.369       .  S
Zr1          O10   2.380       .  S
Zr1          O11   2.396       .  S
Zr1          O12   2.401       .  S
O2           H58   0.990       .  S
O2           H66   0.990       .  S
O3           C23   1.285       .  A
O4           C25   1.279       .  A
O5          Zr15   2.529       .  S
O5           C24   1.302       .  A
O6          Zr14   2.493       .  S
O6           C25   1.294       .  A
O7           C24   1.275       .  A
O8          Zr16   2.387       .  S
O8           C23   1.275       .  A
O9          Zr14   2.394       .  S
O9          Zr16   2.389       .  S
O10         Zr15   2.391       .  S
O10         Zr16   2.373       .  S
O10          H45   0.966       .  S
O11         Zr14   2.392       .  S
O11         Zr31   2.408       .  S
O11          H48   0.966       .  S
O12         Zr15   2.389       .  S
O12         Zr31   2.401       .  S
Zr13         O38   2.445       .  S
Zr13         O32   2.431       .  S
Zr13         O40   2.415       .  S
Zr13         O28   2.444       .  S
Zr13         O19   2.405       .  S
Zr13         O20   2.407       .  S
Zr13         O21   2.379       .  S
Zr13         O22   2.388       .  S
Zr14         O33   2.435       .  S
Zr14         O26   2.434       .  S
Zr14         O27   2.450       .  S
Zr14         O20   2.420       .  S
Zr14         O21   2.414       .  S
Zr15         O17   2.435       .  S
Zr15         O39   2.437       .  S
Zr15         O41   2.477       .  S
Zr15         O19   2.407       .  S
Zr15         O22   2.419       .  S
Zr16         O42   2.436       .  S
Zr16         O43   2.436       .  S
Zr16         O18   2.437       .  S
Zr16         O19   2.377       .  S
Zr16         O20   2.373       .  S
O17          H54   0.990       .  S
O18          H49   0.990       .  S
O18          H63   0.990       .  S
O20          H46   0.964       .  S
O21         Zr31   2.385       .  S
O22         Zr31   2.380       .  S
O22          H47   0.966       .  S
C23        C2286   1.465       .  S
C24        C2296   1.512       .  S
C25        C2276   1.493       .  S
O26          H62   0.990       .  S
O27          C29   1.288       .  A
O28          C29   1.285       .  A
C29        C2266   1.484       .  S
O30         Zr31   2.436       .  S
O30          H59   0.990       .  S
Zr31         O34   2.434       .  S
Zr31         O35   2.441       .  S
Zr31         O36   2.441       .  S
O32          C37   1.282       .  A
O33          H50   0.990       .  S
O33          H65   0.990       .  S
O34          H51   0.990       .  S
O35          H55   0.990       .  S
O35          H64   0.990       .  S
O36          C37   1.285       .  A
C37        C2256   1.497       .  S
O38          H57   0.991       .  S
O38          H61   0.991       .  S
O39          H53   0.990       .  S
O39          H60   0.990       .  S
O40          C44   1.281       .  A
O41          C44   1.293       .  A
O42          H52   0.990       .  S
O43          H56   0.990       .  S
C44        C2246   1.482       .  S
C67          C68   1.545       .  S
C67          C73   1.543   1_565  S
C67          C71   1.540       .  S
C67        C2229   1.552   1_565  S
C68          H75   1.086       .  S
C68          C69   1.374       .  D
C69          C70   1.553       .  S
C69        C2279   1.506       .  S
C70          C74   1.550   1_565  S
C70          C72   1.550       .  S
C70          H76   1.110       .  S
C71          H77   1.086   1_565  S
C71          C72   1.367       .  D
C72        C2216   1.497       .  S
C73          H78   1.081       .  S
C73          C74   1.367       .  D
C74        C2239   1.497       .  S
Zr79         O80   2.442       .  S
Zr79         O81   2.420       .  S
Zr79         O82   2.434       .  S
Zr79         O85   2.429       .  S
Zr79         O87   2.382       .  S
Zr79         O88   2.387       .  S
Zr79         O89   2.403       .  S
Zr79         O90   2.388       .  S
O80         H136   0.990       .  S
O80         H144   0.991       .  S
O81         C101   1.280       .  A
O82         C103   1.283       .  A
O83         Zr93   2.429       .  S
O83         C102   1.284       .  A
O84         Zr92   2.470       .  S
O84         C103   1.292       .  A
O85         C102   1.284       .  A
O86         Zr94   2.395       .  S
O86         C101   1.278       .  A
O87         Zr92   2.401       .  S
O87         Zr94   2.382       .  S
O88         Zr93   2.395       .  S
O88         Zr94   2.388       .  S
O88         H123   0.966       .  S
O89         Zr92   2.403       .  S
O89        Zr109   2.383       .  S
O89         H126   0.965       .  S
O90         Zr93   2.391       .  S
O90        Zr109   2.376       .  S
Zr91        O116   2.441       .  S
Zr91        O110   2.418       .  S
Zr91        O118   2.438       .  S
Zr91        O106   2.402       .  S
Zr91         O97   2.384       .  S
Zr91         O98   2.404       .  S
Zr91         O99   2.385       .  S
Zr91        O100   2.372       .  S
Zr92        O111   2.435       .  S
Zr92        O104   2.435       .  S
Zr92        O105   2.466       .  S
Zr92         O98   2.409       .  S
Zr92         O99   2.398       .  S
Zr93         O95   2.435       .  S
Zr93        O117   2.436       .  S
Zr93        O119   2.446       .  S
Zr93         O97   2.392       .  S
Zr93        O100   2.387       .  S
Zr94        O120   2.435       .  S
Zr94        O121   2.436       .  S
Zr94         O96   2.438       .  S
Zr94         O97   2.392       .  S
Zr94         O98   2.379       .  S
O95         H132   0.990       .  S
O96         H127   0.990       .  S
O96         H141   0.990       .  S
O98         H124   0.966       .  S
O99        Zr109   2.372       .  S
O100       Zr109   2.384       .  S
O100        H125   0.965       .  S
C101       C2206   1.473       .  S
C102       C2196   1.482       .  S
C103       C2236   1.498       .  S
O104        H140   0.990       .  S
O105        C107   1.291       .  A
O106        C107   1.280       .  A
C107       C2186   1.491       .  S
O108       Zr109   2.438       .  S
O108        H137   0.990       .  S
Zr109       O112   2.439       .  S
Zr109       O113   2.438       .  S
Zr109       O114   2.395       .  S
O110        C115   1.281       .  A
O111        H128   0.990       .  S
O111        H143   0.990       .  S
O112        H129   0.990       .  S
O113        H133   0.990       .  S
O113        H142   0.990       .  S
O114        C115   1.278       .  A
C115       C2176   1.473       .  S
O116        H135   0.990       .  S
O116        H139   0.990       .  S
O117        H131   0.990       .  S
O117        H138   0.990       .  S
O118        C122   1.287       .  A
O119        C122   1.287       .  A
O120        H130   0.990       .  S
O121        H134   0.990       .  S
C122       C2166   1.498       .  S
C145        C146   1.543       .  S
C145        C151   1.543       .  S
C145        C149   1.540       .  S
C145       C2249   1.546       .  S
C146        H153   1.082       .  S
C146        C147   1.363       .  D
C147        C148   1.540       .  S
C147       C2146   1.482       .  S
C148        C152   1.547       .  S
C148        C150   1.551       .  S
C148        H154   1.107       .  S
C149        H155   1.086       .  S
C149        C150   1.373       .  D
C150       C2169   1.505       .  S
C151        H156   1.085       .  S
C151        C152   1.372       .  D
C152       C2159   1.505       .  S
C157        C158   1.519       .  S
C157        C163   1.537       .  S
C157        C161   1.547       .  S
C157       C2139   1.525       .  S
C158        H165   1.088       .  S
C158        C159   1.351       .  D
C159        C160   1.548       .  S
C159       C2116   1.476       .  S
C160        C164   1.540       .  S
C160        C162   1.551       .  S
C160        H166   1.109       .  S
C161        H167   1.081       .  S
C161        C162   1.376       .  D
C162       C2259   1.504       .  S
C163        H168   1.086       .  S
C163        C164   1.368       .  D
C164       C2126   1.483       .  S
Zr169       O170   2.446       .  S
Zr169       O171   2.464       .  S
Zr169       O172   2.446       .  S
Zr169       O175   2.430       .  S
Zr169       O177   2.387       .  S
Zr169       O178   2.385       .  S
Zr169       O179   2.420       .  S
Zr169       O180   2.414       .  S
O170        H226   0.990       .  S
O170        H234   0.991       .  S
O171        C191   1.288       .  A
O172        C193   1.284       .  A
O173       Zr183   2.443       .  S
O173        C192   1.286       .  A
O174       Zr182   2.503       .  S
O174        C193   1.297       .  A
O175        C192   1.282       .  A
O176       Zr184   2.387       .  S
O176        C191   1.275       .  A
O177       Zr182   2.412       .  S
O177       Zr184   2.395       .  S
O178       Zr183   2.391       .  S
O178       Zr184   2.380       .  S
O178        H213   0.965       .  S
O179       Zr182   2.406       .  S
O179       Zr199   2.396       .  S
O179        H216   0.965       .  S
O180       Zr183   2.402       .  S
O180       Zr199   2.405       .  S
Zr181       O206   2.443       .  S
Zr181       O200   2.402       .  S
Zr181       O208   2.441       .  S
Zr181       O196   2.400       .  S
Zr181       O187   2.384       .  S
Zr181       O188   2.403       .  S
Zr181       O189   2.387       .  S
Zr181       O190   2.374       .  S
Zr182       O201   2.437       .  S
Zr182       O194   2.434       .  S
Zr182       O195   2.490       .  S
Zr182       O188   2.412       .  S
Zr182       O189   2.395       .  S
Zr183       O185   2.435       .  S
Zr183       O207   2.437       .  S
Zr183       O209   2.465       .  S
Zr183       O187   2.390       .  S
Zr183       O190   2.387       .  S
Zr184       O210   2.436       .  S
Zr184       O211   2.436       .  S
Zr184       O186   2.437       .  S
Zr184       O187   2.389       .  S
Zr184       O188   2.380       .  S
O185        H222   0.990       .  S
O186        H217   0.990       .  S
O186        H231   0.990       .  S
O188        H214   0.966       .  S
O189       Zr199   2.366       .  S
O190       Zr199   2.379       .  S
O190        H215   0.967       .  S
C191       C2066   1.476       .  S
C192       C2106   1.477       .  S
C193       C2076   1.510       .  S
O194        H230   0.989       .  S
O195        C197   1.297       .  A
O196        C197   1.280       .  A
C197       C2086   1.496       .  S
O198       Zr199   2.441       .  S
O198        H227   0.990       .  S
Zr199       O202   2.438       .  S
Zr199       O203   2.439       .  S
Zr199       O204   2.443       .  S
O200        C205   1.278       .  A
O201        H218   0.990       .  S
O201        H233   0.990       .  S
O202        H219   0.990       .  S
O203        H223   0.990       .  S
O203        H232   0.990       .  S
O204        C205   1.285       .  A
C205       C2136   1.466       .  S
O206        H225   0.990       .  S
O206        H229   0.990       .  S
O207        H221   0.990       .  S
O207        H228   0.990       .  S
O208        C212   1.286       .  A
O209        C212   1.290       .  A
O210        H220   0.990       .  S
O211        H224   0.990       .  S
C212       C2096   1.489       .  S
C235        C236   1.528       .  S
C235        C241   1.538       .  S
C235        C239   1.538       .  S
C235       C2289   1.524       .  S
C236        H243   1.086       .  S
C236        C237   1.358       .  D
C237        C238   1.537   1_556  S
C237       C2056   1.478       .  S
C238        C242   1.538   1_554  S
C238        C240   1.540       .  S
C238        H244   1.107       .  S
C239        H245   1.085       .  S
C239        C240   1.372   1_556  D
C240       C2069   1.494       .  S
C241        H246   1.082       .  S
C241        C242   1.365       .  D
C242       C2049   1.472       .  S
C247        C248   1.539       .  S
C247        C253   1.531       .  S
C247        C251   1.536       .  S
C247       C2029   1.525       .  S
C248        H255   1.082       .  S
C248        C249   1.364       .  D
C249        C250   1.539       .  S
C249       C2019   1.477       .  S
C250        C254   1.546       .  S
C250        C252   1.548       .  S
C250        H256   1.109       .  S
C251        H257   1.085       .  S
C251        C252   1.367       .  D
C252       C2036   1.488       .  S
C253        H258   1.087       .  S
C253        C254   1.363       .  D
C254       C2109   1.489       .  S
C259        C260   1.527       .  S
C259        C265   1.537       .  S
C259        C263   1.533       .  S
C259       C1976   1.534       .  S
C260        H267   1.087       .  S
C260        C261   1.361       .  D
C261        C262   1.562   1_565  S
C261       C1996   1.501       .  S
C262        C266   1.561   1_545  S
C262        C264   1.555       .  S
C262        H268   1.109       .  S
C263        H269   1.080       .  S
C263        C264   1.366   1_565  D
C264       C1986   1.490       .  S
C265        H270   1.086       .  S
C265        C266   1.374       .  D
C266       C2006   1.516       .  S
C271        C272   1.530       .  S
C271        C277   1.535       .  S
C271        C275   1.533       .  S
C271       C2179   1.517       .  S
C272        H279   1.087       .  S
C272        C273   1.365       .  D
C273        C274   1.546   1_556  S
C273       C1956   1.492       .  S
C274        C278   1.537       .  S
C274        C276   1.546       .  S
C274        H280   1.110       .  S
C275        H281   1.087       .  S
C275        C276   1.360   1_556  D
C276       C1946   1.471       .  S
C277        H282   1.081       .  S
C277        C278   1.363   1_556  D
C278       C1966   1.472       .  S
C283        C284   1.537       .  S
C283        C289   1.532       .  S
C283        C287   1.549   1_554  S
C283       C1936   1.533       .  S
C284        H291   1.086       .  S
C284        C285   1.368   1_554  D
C285        C286   1.535       .  S
C285       C1926   1.480       .  S
C286        C290   1.540       .  S
C286        C288   1.529       .  S
C286        H292   1.111       .  S
C287        H293   1.084       .  S
C287        C288   1.364       .  D
C288       C1906   1.466       .  S
C289        H294   1.086       .  S
C289        C290   1.368   1_554  D
C290       C1916   1.485       .  S
C295        C296   1.542       .  S
C295        C301   1.541       .  S
C295        C299   1.529       .  S
C295       C1866   1.536       .  S
C296        H303   1.083       .  S
C296        C297   1.369       .  D
C297        C298   1.551       .  S
C297       C1896   1.503       .  S
C298        C302   1.551       .  S
C298        C300   1.545       .  S
C298        H304   1.110       .  S
C299        H305   1.086       .  S
C299        C300   1.365       .  D
C300       C1876   1.483       .  S
C301        H306   1.086       .  S
C301        C302   1.365       .  D
C302       C1889   1.492       .  S
C307        C308   1.558       .  S
C307        C313   1.540       .  S
C307        C311   1.529       .  S
C307       C1836   1.535       .  S
C308        H315   1.082       .  S
C308        C309   1.370       .  D
C309        C310   1.530       .  S
C309       C1856   1.490       .  S
C310        C314   1.549       .  S
C310        C312   1.530       .  S
C310        H316   1.109       .  S
C311        H317   1.087       .  S
C311        C312   1.360       .  D
C312       C2209   1.463       .  S
C313        H318   1.084       .  S
C313        C314   1.369       .  D
C314       C1846   1.500       .  S
C319        C320   1.526   1_455  S
C319        C325   1.533       .  S
C319        C323   1.546       .  S
C319       C1826   1.525       .  S
C320        H327   1.087       .  S
C320        C321   1.358       .  D
C321        C322   1.558       .  S
C321       C2089   1.498       .  S
C322        C326   1.539   1_655  S
C322        C324   1.552   1_655  S
C322        H328   1.109       .  S
C323        H329   1.084       .  S
C323        C324   1.378       .  D
C324       C1819   1.501       .  S
C325        H330   1.087       .  S
C325        C326   1.359       .  D
C326       C1806   1.473       .  S
Zr331       O332   2.444       .  S
Zr331       O333   2.458       .  S
Zr331       O334   2.447       .  S
Zr331       O337   2.415       .  S
Zr331       O339   2.377       .  S
Zr331       O340   2.389       .  S
Zr331       O341   2.408       .  S
Zr331       O342   2.408       .  S
O332        H388   0.990       .  S
O332        H396   0.991       .  S
O333        C353   1.287       .  A
O334        C355   1.285       .  A
O335       Zr345   2.459       .  S
O335        C354   1.289       .  A
O336       Zr344   2.478       .  S
O336        C355   1.291       .  A
O337        C354   1.282       .  A
O338       Zr346   2.397       .  S
O338        C353   1.277       .  A
O339       Zr344   2.403       .  S
O339       Zr346   2.390       .  S
O340       Zr345   2.409       .  S
O340       Zr346   2.374       .  S
O340        H375   0.966       .  S
O341       Zr344   2.405       .  S
O341       Zr361   2.385       .  S
O341        H378   0.964       .  S
O342       Zr345   2.402       .  S
O342       Zr361   2.388       .  S
Zr343       O368   2.445       .  S
Zr343       O362   2.433       .  S
Zr343       O370   2.443       .  S
Zr343       O358   2.420       .  S
Zr343       O349   2.399       .  S
Zr343       O350   2.406       .  S
Zr343       O351   2.383       .  S
Zr343       O352   2.380       .  S
Zr344       O363   2.439       .  S
Zr344       O356   2.434       .  S
Zr344       O357   2.459       .  S
Zr344       O350   2.409       .  S
Zr344       O351   2.398       .  S
Zr345       O347   2.435       .  S
Zr345       O369   2.437       .  S
Zr345       O371   2.491       .  S
Zr345       O349   2.394       .  S
Zr345       O352   2.393       .  S
Zr346       O372   2.435       .  S
Zr346       O373   2.435       .  S
Zr346       O348   2.437       .  S
Zr346       O349   2.397       .  S
Zr346       O350   2.385       .  S
O347        H384   0.990       .  S
O348        H379   0.990       .  S
O348        H393   0.990       .  S
O350        H376   0.966       .  S
O351       Zr361   2.371       .  S
O352       Zr361   2.375       .  S
O352        H377   0.966       .  S
C353       C1939   1.483       .  S
C354       C2016   1.480       .  S
C355       C1789   1.495       .  S
O356        H392   0.990       .  S
O357        C359   1.290       .  A
O358        C359   1.284       .  A
C359       C1809   1.477       .  S
O360       Zr361   2.439       .  S
O360        H389   0.990       .  S
Zr361       O364   2.439       .  S
Zr361       O365   2.440       .  S
Zr361       O366   2.417       .  S
O362        C367   1.284       .  A
O363        H380   0.990       .  S
O363        H395   0.990       .  S
O364        H381   0.990       .  S
O365        H385   0.990       .  S
O365        H394   0.990       .  S
O366        C367   1.281       .  A
C367       C1779   1.475       .  S
O368        H387   0.990       .  S
O368        H391   0.990       .  S
O369        H383   0.990       .  S
O369        H390   0.990       .  S
O370        C374   1.287       .  A
O371        C374   1.295       .  A
O372        H382   0.990       .  S
O373        H386   0.990       .  S
C374       C1799   1.503       .  S
C397        C398   1.531       .  S
C397        C403   1.536       .  S
C397        C401   1.547       .  S
C397       C1776   1.528       .  S
C398        H405   1.085       .  S
C398        C399   1.363       .  D
C399        C400   1.551       .  S
C399       C1769   1.498       .  S
C400        C404   1.542       .  S
C400        C402   1.537       .  S
C400        H406   1.110       .  S
C401        H407   1.084       .  S
C401        C402   1.368       .  D
C402       C1746   1.474       .  S
C403        H408   1.086       .  S
C403        C404   1.365       .  D
C404       C1756   1.485       .  S
C409        C410   1.527       .  S
C409        C415   1.530       .  S
C409        C413   1.554       .  S
C409       C1719   1.541       .  S
C410        H417   1.087       .  S
C410        C411   1.361       .  D
C411        C412   1.566       .  S
C411       C1736   1.506       .  S
C412        C416   1.554       .  S
C412        C414   1.556       .  S
C412        H418   1.107       .  S
C413        H419   1.082       .  S
C413        C414   1.382       .  D
C414       C1726   1.518       .  S
C415        H420   1.087       .  S
C415        C416   1.363       .  D
C416       C2099   1.495       .  S
Zr421       O422   2.443       .  S
Zr421       O423   2.422       .  S
Zr421       O424   2.438       .  S
Zr421       O427   2.384       .  S
Zr421       O429   2.376       .  S
Zr421       O430   2.385       .  S
Zr421       O431   2.391       .  S
Zr421       O432   2.403       .  S
O422        H478   0.990       .  S
O422        H486   0.990       .  S
O423        C443   1.281       .  A
O424        C445   1.284       .  A
O425       Zr435   2.460       .  S
O425        C444   1.290       .  A
O426       Zr434   2.486       .  S
O426        C445   1.296       .  A
O427        C444   1.277       .  A
O428       Zr436   2.432       .  S
O428        C443   1.282       .  A
O429       Zr434   2.407       .  S
O429       Zr436   2.386       .  S
O430       Zr435   2.398       .  S
O430       Zr436   2.370       .  S
O430        H465   0.966       .  S
O431       Zr434   2.409       .  S
O431       Zr451   2.386       .  S
O431        H468   0.965       .  S
O432       Zr435   2.410       .  S
O432       Zr451   2.383       .  S
Zr433       O458   2.443       .  S
Zr433       O452   2.422       .  S
Zr433       O460   2.406       .  S
Zr433       O448   2.376       .  S
Zr433       O439   2.388       .  S
Zr433       O440   2.402       .  S
Zr433       O441   2.374       .  S
Zr433       O442   2.370       .  S
Zr434       O453   2.435       .  S
Zr434       O446   2.435       .  S
Zr434       O447   2.494       .  S
Zr434       O440   2.403       .  S
Zr434       O441   2.393       .  S
Zr435       O437   2.435       .  S
Zr435       O459   2.437       .  S
Zr435       O461   2.498       .  S
Zr435       O439   2.384       .  S
Zr435       O442   2.389       .  S
Zr436       O462   2.436       .  S
Zr436       O463   2.436       .  S
Zr436       O438   2.436       .  S
Zr436       O439   2.406       .  S
Zr436       O440   2.393       .  S
O437        H474   0.990       .  S
O438        H469   0.990       .  S
O438        H483   0.990       .  S
O440        H466   0.965       .  S
O441       Zr451   2.375       .  S
O442       Zr451   2.384       .  S
O442        H467   0.966       .  S
C443       C1709   1.467       .  S
C444       C1949   1.475       .  S
C445       C1739   1.511       .  S
O446        H482   0.990       .  S
O447        C449   1.296       .  A
O448        C449   1.275       .  A
C449       C1839   1.482       .  S
O450       Zr451   2.435       .  S
O450        H479   0.990       .  S
Zr451       O454   2.436       .  S
Zr451       O455   2.439       .  S
Zr451       O456   2.405       .  S
O452        C457   1.282       .  A
O453        H470   0.990       .  S
O453        H485   0.990       .  S
O454        H471   0.990       .  S
O455        H475   0.990       .  S
O455        H484   0.990       .  S
O456        C457   1.278       .  A
C457       C1696   1.462       .  S
O458        H477   0.990       .  S
O458        H481   0.990       .  S
O459        H473   0.990       .  S
O459        H480   0.990       .  S
O460        C464   1.280       .  A
O461        C464   1.296       .  A
O462        H472   0.990       .  S
O463        H476   0.990       .  S
C464       C1686   1.494       .  S
C487        C488   1.549       .  S
C487        C493   1.542   1_545  S
C487        C491   1.542       .  S
C487       C1666   1.562       .  S
C488        H495   1.082       .  S
C488        C489   1.371       .  D
C489        C490   1.545       .  S
C489       C1689   1.508       .  S
C490        C494   1.565   1_545  S
C490        C492   1.544       .  S
C490        H496   1.109       .  S
C491        H497   1.086       .  S
C491        C492   1.371       .  D
C492       C1676   1.495       .  S
C493        H498   1.084       .  S
C493        C494   1.376       .  D
C494       C2079   1.520       .  S
C499        C500   1.538       .  S
C499        C505   1.546       .  S
C499        C503   1.538       .  S
C499       C1646   1.529       .  S
C500        H507   1.086       .  S
C500        C501   1.363       .  D
C501        C502   1.546       .  S
C501       C2189   1.488       .  S
C502        C506   1.536       .  S
C502        C504   1.534       .  S
C502        H508   1.111       .  S
C503        H509   1.086       .  S
C503        C504   1.366       .  D
C504       C1636   1.472       .  S
C505        H510   1.081       .  S
C505        C506   1.363       .  D
C506       C1656   1.486       .  S
Zr511       O512   2.441       .  S
Zr511       O513   2.397       .  S
Zr511       O514   2.422       .  S
Zr511       O517   2.397       .  S
Zr511       O519   2.378       .  S
Zr511       O520   2.385       .  S
Zr511       O521   2.387       .  S
Zr511       O522   2.385       .  S
O512        H568   0.990       .  S
O512        H576   0.990       .  S
O513        C533   1.277       .  A
O514        C535   1.282       .  A
O515       Zr525   2.464       .  S
O515        C534   1.290       .  A
O516       Zr524   2.441       .  S
O516        C535   1.287       .  A
O517        C534   1.278       .  A
O518       Zr526   2.414       .  S
O518        C533   1.282       .  A
O519       Zr524   2.393       .  S
O519       Zr526   2.374       .  S
O520       Zr525   2.396       .  S
O520       Zr526   2.373       .  S
O520        H555   0.966       .  S
O521       Zr524   2.409       .  S
O521       Zr541   2.379       .  S
O521        H558   0.965       .  S
O522       Zr525   2.395       .  S
O522       Zr541   2.374       .  S
Zr523       O548   2.445       .  S
Zr523       O542   2.434       .  S
Zr523       O550   2.401       .  S
Zr523       O538   2.396       .  S
Zr523       O529   2.388       .  S
Zr523       O530   2.395       .  S
Zr523       O531   2.368       .  S
Zr523       O532   2.382       .  S
Zr524       O543   2.436       .  S
Zr524       O536   2.434       .  S
Zr524       O537   2.470       .  S
Zr524       O530   2.392       .  S
Zr524       O531   2.376       .  S
Zr525       O527   2.436       .  S
Zr525       O549   2.438       .  S
Zr525       O551   2.468       .  S
Zr525       O529   2.385       .  S
Zr525       O532   2.395       .  S
Zr526       O552   2.436       .  S
Zr526       O553   2.435       .  S
Zr526       O528   2.437       .  S
Zr526       O529   2.385       .  S
Zr526       O530   2.393       .  S
O527        H564   0.990       .  S
O528        H559   0.990       .  S
O528        H573   0.990       .  S
O530        H556   0.965       .  S
O531       Zr541   2.374       .  S
O532       Zr541   2.381       .  S
O532        H557   0.967       .  S
C533       C1616   1.468       .  S
C534       C1606   1.467       .  S
C535       C1879   1.487       .  S
O536        H572   0.990       .  S
O537        C539   1.291       .  A
O538        C539   1.278       .  A
C539       C1659   1.469       .  S
O540       Zr541   2.436       .  S
O540        H569   0.990       .  S
Zr541       O544   2.435       .  S
Zr541       O545   2.436       .  S
Zr541       O546   2.386       .  S
O542        C547   1.286       .  A
O543        H560   0.990       .  S
O543        H575   0.990       .  S
O544        H561   0.990       .  S
O545        H565   0.990       .  S
O545        H574   0.990       .  S
O546        C547   1.277       .  A
C547       C1626   1.473       .  S
O548        H567   0.990       .  S
O548        H571   0.990       .  S
O549        H563   0.990       .  S
O549        H570   0.990       .  S
O550        C554   1.279       .  A
O551        C554   1.292       .  A
O552        H562   0.990       .  S
O553        H566   0.990       .  S
C554       C1989   1.491       .  S
C577        C578   1.550   1_655  S
C577        C583   1.535       .  S
C577        C581   1.549       .  S
C577       C1586   1.538       .  S
C578        H585   1.081       .  S
C578        C579   1.362       .  D
C579        C580   1.528   1_455  S
C579       C1609   1.480       .  S
C580        C584   1.538       .  S
C580        C582   1.533       .  S
C580        H586   1.111       .  S
C581        H587   1.086       .  S
C581        C582   1.374       .  D
C582       C1596   1.481       .  S
C583        H588   1.085       .  S
C583        C584   1.361       .  D
C584       C2199   1.485       .  S
C589        C590   1.540   1_455  S
C589        C595   1.539       .  S
C589        C593   1.518       .  S
C589       C1576   1.513       .  S
C590        H597   1.085       .  S
C590        C591   1.367       .  D
C591        C592   1.538       .  S
C591       C1706   1.483       .  S
C592        C596   1.537   1_655  S
C592        C594   1.548   1_655  S
C592        H598   1.109       .  S
C593        H599   1.087       .  S
C593        C594   1.358       .  D
C594       C1559   1.477   1_455  S
C595        H600   1.085       .  S
C595        C596   1.364       .  D
C596       C1566   1.480       .  S
Zr601       O602   2.439       .  S
Zr601       O603   2.417       .  S
Zr601       O604   2.433       .  S
Zr601       O607   2.392       .  S
Zr601       O609   2.375   1_545  S
Zr601       O610   2.384   1_554  S
Zr601       O611   2.396       .  S
Zr601       O612   2.401   1_455  S
O602        H658   0.990       .  S
O602        H666   0.990       .  S
O603        C623   1.281       .  A
O604        C625   1.284   1_545  A
O605       Zr615   2.422   1_455  S
O605        C624   1.282   1_556  A
O606       Zr614   2.494       .  S
O606        C625   1.296       .  A
O607        C624   1.279       .  A
O608       Zr616   2.439   1_545  S
O608        C623   1.286   1_556  A
O609       Zr614   2.398       .  S
O609       Zr616   2.384   1_554  S
O610       Zr615   2.397   1_455  S
O610       Zr616   2.370   1_545  S
O610        H645   0.965       .  S
O611       Zr614   2.401   1_545  S
O611       Zr631   2.398   1_455  S
O611        H648   0.966       .  S
O612       Zr615   2.405   1_554  S
O612       Zr631   2.386       .  S
Zr613       O638   2.443   1_655  S
Zr613       O632   2.405       .  S
Zr613       O640   2.434       .  S
Zr613       O628   2.381       .  S
Zr613       O619   2.382   1_665  S
Zr613       O620   2.407   1_655  S
Zr613       O621   2.387   1_556  S
Zr613       O622   2.369   1_565  S
Zr614       O633   2.437       .  S
Zr614       O626   2.434       .  S
Zr614       O627   2.478       .  S
Zr614       O620   2.410   1_554  S
Zr614       O621   2.399   1_455  S
Zr615       O617   2.435       .  S
Zr615       O639   2.436   1_655  S
Zr615       O641   2.467       .  S
Zr615       O619   2.388   1_655  S
Zr615       O622   2.378       .  S
Zr616       O642   2.435   1_565  S
Zr616       O643   2.436       .  S
Zr616       O618   2.437       .  S
Zr616       O619   2.404   1_565  S
Zr616       O620   2.398       .  S
O617        H654   0.990       .  S
O618        H649   0.990       .  S
O618        H663   0.990   1_556  S
O620        H646   0.966       .  S
O621       Zr631   2.375   1_565  S
O622       Zr631   2.379   1_556  S
O622        H647   0.966       .  S
C623       C1536   1.486       .  S
C624       C1579   1.453       .  S
C625       C1546   1.509       .  S
O626        H662   0.990       .  S
O627        C629   1.293       .  A
O628        C629   1.276   1_656  A
C629       C1529   1.473   1_554  S
O630       Zr631   2.434       .  S
O630        H659   0.990       .  S
Zr631       O634   2.435   1_545  S
Zr631       O635   2.438       .  S
Zr631       O636   2.418   1_545  S
O632        C637   1.280       .  A
O633        H650   0.990       .  S
O633        H665   0.990   1_455  S
O634        H651   0.990       .  S
O635        H655   0.990       .  S
O635        H664   0.990       .  S
O636        C637   1.281   1_554  A
C637       C2059   1.470       .  S
O638        H657   0.990       .  S
O638        H661   0.990       .  S
O639        H653   0.990       .  S
O639        H660   0.990       .  S
O640        C644   1.285   1_565  A
O641        C644   1.290       .  A
O642        H652   0.990       .  S
O643        H656   0.990       .  S
C644       C2226   1.501       .  S
Zr667       O668   2.444       .  S
Zr667       O669   2.423       .  S
Zr667       O670   2.428       .  S
Zr667       O673   2.385       .  S
Zr667       O675   2.373       .  S
Zr667       O676   2.387       .  S
Zr667       O677   2.399       .  S
Zr667       O678   2.401       .  S
O668        H724   0.990       .  S
O668        H732   0.990       .  S
O669        C689   1.281       .  A
O670        C691   1.281       .  A
O671       Zr681   2.471       .  S
O671        C690   1.292       .  A
O672       Zr680   2.518       .  S
O672        C691   1.300       .  A
O673        C690   1.276       .  A
O674       Zr682   2.421       .  S
O674        C689   1.280       .  A
O675       Zr680   2.410       .  S
O675       Zr682   2.390       .  S
O676       Zr681   2.406       .  S
O676       Zr682   2.379       .  S
O676        H711   0.965       .  S
O677       Zr680   2.408       .  S
O677       Zr697   2.393       .  S
O677        H714   0.965       .  S
O678       Zr681   2.402       .  S
O678       Zr697   2.375       .  S
Zr679       O704   2.445       .  S
Zr679       O698   2.423       .  S
Zr679       O706   2.409       .  S
Zr679       O694   2.372       .  S
Zr679       O685   2.392       .  S
Zr679       O686   2.402       .  S
Zr679       O687   2.385       .  S
Zr679       O688   2.372       .  S
Zr680       O699   2.436       .  S
Zr680       O692   2.434       .  S
Zr680       O693   2.511       .  S
Zr680       O686   2.407       .  S
Zr680       O687   2.402       .  S
Zr681       O683   2.435       .  S
Zr681       O705   2.437       .  S
Zr681       O707   2.499       .  S
Zr681       O685   2.395       .  S
Zr681       O688   2.385       .  S
Zr682       O708   2.435       .  S
Zr682       O709   2.436       .  S
Zr682       O684   2.437       .  S
Zr682       O685   2.403       .  S
Zr682       O686   2.392       .  S
O683        H720   0.990       .  S
O684        H715   0.990       .  S
O684        H729   0.990       .  S
O686        H712   0.965       .  S
O687       Zr697   2.380       .  S
O688       Zr697   2.379       .  S
O688        H713   0.966       .  S
C689       C1569   1.472       .  S
C690       C1516   1.478       .  S
C691       C1506   1.521       .  S
O692        H728   0.990       .  S
O693        C695   1.300       .  A
O694        C695   1.274       .  A
C695       C1486   1.492       .  S
O696       Zr697   2.437       .  S
O696        H725   0.990       .  S
Zr697       O700   2.435       .  S
Zr697       O701   2.440       .  S
Zr697       O702   2.402       .  S
O698        C703   1.282       .  A
O699        H716   0.990       .  S
O699        H731   0.990       .  S
O700        H717   0.990       .  S
O701        H721   0.990       .  S
O701        H730   0.990       .  S
O702        C703   1.278       .  A
C703       C1499   1.465       .  S
O704        H723   0.990       .  S
O704        H727   0.990       .  S
O705        H719   0.990       .  S
O705        H726   0.990       .  S
O706        C710   1.280       .  A
O707        C710   1.298       .  A
O708        H718   0.990       .  S
O709        H722   0.990       .  S
C710       C1479   1.510       .  S
C733        C734   1.532       .  S
C733        C739   1.543   1_545  S
C733        C737   1.542       .  S
C733       C1466   1.552       .  S
C734        H741   1.087       .  S
C734        C735   1.363       .  D
C735        C736   1.576       .  S
C735       C1509   1.516       .  S
C736        C740   1.562   1_545  S
C736        C738   1.557       .  S
C736        H742   1.109       .  S
C737        H743   1.086       .  S
C737        C738   1.375       .  D
C738       C1549   1.512       .  S
C739        H744   1.077       .  S
C739        C740   1.368       .  D
C740       C1796   1.516       .  S
Zr745       O746   2.442       .  S
Zr745       O747   2.447       .  S
Zr745       O748   2.444       .  S
Zr745       O751   2.405       .  S
Zr745       O753   2.378   1_655  S
Zr745       O754   2.388       .  S
Zr745       O755   2.404   1_545  S
Zr745       O756   2.406       .  S
O746        H802   0.991       .  S
O746        H810   0.990       .  S
O747        C767   1.285       .  A
O748        C769   1.285       .  A
O749       Zr759   2.461       .  S
O749        C768   1.290       .  A
O750       Zr758   2.479   1_655  S
O750        C769   1.293   1_565  A
O751        C768   1.280       .  A
O752       Zr760   2.401       .  S
O752        C767   1.277   1_455  A
O753       Zr758   2.404   1_545  S
O753       Zr760   2.385       .  S
O754       Zr759   2.400       .  S
O754       Zr760   2.379   1_655  S
O754        H789   0.966       .  S
O755       Zr758   2.407   1_655  S
O755       Zr775   2.396       .  S
O755        H792   0.965       .  S
O756       Zr759   2.401       .  S
O756       Zr775   2.395   1_545  S
Zr757       O782   2.441       .  S
Zr757       O776   2.424       .  S
Zr757       O784   2.413       .  S
Zr757       O772   2.407       .  S
Zr757       O763   2.391   1_565  S
Zr757       O764   2.402   1_565  S
Zr757       O765   2.378       .  S
Zr757       O766   2.377   1_455  S
Zr758       O777   2.436       .  S
Zr758       O770   2.433   1_565  S
Zr758       O771   2.479       .  S
Zr758       O764   2.410   1_565  S
Zr758       O765   2.399       .  S
Zr759       O761   2.436       .  S
Zr759       O783   2.436       .  S
Zr759       O785   2.477       .  S
Zr759       O763   2.393   1_655  S
Zr759       O766   2.399   1_545  S
Zr760       O786   2.437       .  S
Zr760       O787   2.434       .  S
Zr760       O762   2.437       .  S
Zr760       O763   2.391       .  S
Zr760       O764   2.381       .  S
O761        H798   0.990   1_545  S
O762        H793   0.990       .  S
O762        H807   0.990       .  S
O764        H790   0.965       .  S
O765       Zr775   2.374   1_455  S
O766       Zr775   2.381       .  S
O766        H791   0.967       .  S
C767       C1599   1.467       .  S
C768       C1849   1.494       .  S
C769       C2219   1.506       .  S
O770        H806   0.990   1_545  S
O771        C773   1.293       .  A
O772        C773   1.279       .  A
C773       C1759   1.475       .  S
O774       Zr775   2.439       .  S
O774        H803   0.991       .  S
Zr775       O778   2.437       .  S
Zr775       O779   2.442       .  S
Zr775       O780   2.422       .  S
O776        C781   1.282       .  A
O777        H794   0.990       .  S
O777        H809   0.990   1_455  S
O778        H795   0.990       .  S
O779        H799   0.990       .  S
O779        H808   0.990       .  S
O780        C781   1.281   1_655  A
C781       C1829   1.472       .  S
O782        H801   0.990       .  S
O782        H805   0.991       .  S
O783        H797   0.990       .  S
O783        H804   0.990       .  S
O784        C788   1.282   1_565  A
O785        C788   1.292   1_655  A
O786        H796   0.990       .  S
O787        H800   0.990       .  S
C788       C1469   1.500       .  S
C811        C812   1.541       .  S
C811        C817   1.535       .  S
C811        C815   1.523   1_556  S
C811       C1629   1.519       .  S
C812        H819   1.086       .  S
C812        C813   1.366   1_556  D
C813        C814   1.539       .  S
C813       C1539   1.490       .  S
C814        C818   1.533       .  S
C814        C816   1.552       .  S
C814        H820   1.110       .  S
C815        H821   1.087       .  S
C815        C816   1.361       .  D
C816       C1519   1.475       .  S
C817        H822   1.081       .  S
C817        C818   1.363   1_556  D
C818       C1456   1.470       .  S
Zr823       O824   2.443       .  S
Zr823       O825   2.431       .  S
Zr823       O826   2.456       .  S
Zr823       O829   2.414       .  S
Zr823       O831   2.372   1_545  S
Zr823       O832   2.391   1_556  S
Zr823       O833   2.403       .  S
Zr823       O834   2.403       .  S
O824        H880   0.990       .  S
O824        H888   0.990       .  S
O825        C845   1.282   1_556  A
O826        C847   1.287   1_545  A
O827       Zr837   2.438       .  S
O827        C846   1.285       .  A
O828       Zr836   2.471       .  S
O828        C847   1.292       .  A
O829        C846   1.282   1_556  A
O830       Zr838   2.406   1_545  S
O830        C845   1.277       .  A
O831       Zr836   2.402       .  S
O831       Zr838   2.388   1_556  S
O832       Zr837   2.400       .  S
O832       Zr838   2.379   1_545  S
O832        H867   0.966       .  S
O833       Zr836   2.405   1_545  S
O833       Zr853   2.381       .  S
O833        H870   0.964       .  S
O834       Zr837   2.403   1_556  S
O834       Zr853   2.384       .  S
Zr835       O860   2.444       .  S
Zr835       O854   2.439       .  S
Zr835       O862   2.438       .  S
Zr835       O850   2.422       .  S
Zr835       O841   2.397   1_565  S
Zr835       O842   2.416       .  S
Zr835       O843   2.381   1_554  S
Zr835       O844   2.377   1_565  S
Zr836       O855   2.436       .  S
Zr836       O848   2.433       .  S
Zr836       O849   2.458       .  S
Zr836       O842   2.409   1_556  S
Zr836       O843   2.407       .  S
Zr837       O839   2.435       .  S
Zr837       O861   2.436       .  S
Zr837       O863   2.469       .  S
Zr837       O841   2.387       .  S
Zr837       O844   2.392       .  S
Zr838       O864   2.434   1_565  S
Zr838       O865   2.436       .  S
Zr838       O840   2.438       .  S
Zr838       O841   2.397   1_565  S
Zr838       O842   2.378       .  S
O839        H876   0.990       .  S
O840        H871   0.990       .  S
O840        H885   0.990       .  S
O842        H868   0.963       .  S
O843       Zr853   2.384   1_565  S
O844       Zr853   2.387   1_554  S
O844        H869   0.966       .  S
C845       C1459   1.465       .  S
C846       C1649   1.469   1_554  S
C847       C1999   1.506       .  S
O848        H884   0.990   1_556  S
O849        C851   1.288   1_556  A
O850        C851   1.281       .  A
C851       C2039   1.470       .  S
O852       Zr853   2.439       .  S
O852        H881   0.990       .  S
Zr853       O856   2.439   1_545  S
Zr853       O857   2.438       .  S
Zr853       O858   2.393   1_545  S
O854        C859   1.284       .  A
O855        H872   0.990       .  S
O855        H887   0.990       .  S
O856        H873   0.990       .  S
O857        H877   0.990       .  S
O857        H886   0.990       .  S
O858        C859   1.276   1_556  A
C859       C2046   1.478       .  S
O860        H879   0.991       .  S
O860        H883   0.990       .  S
O861        H875   0.990       .  S
O861        H882   0.990       .  S
O862        C866   1.285   1_565  A
O863        C866   1.291       .  A
O864        H874   0.989       .  S
O865        H878   0.990       .  S
C866       C1679   1.498       .  S
Zr889       O890   2.445       .  S
Zr889       O891   2.433       .  S
Zr889       O892   2.440       .  S
Zr889       O895   2.401       .  S
Zr889       O897   2.375       .  S
Zr889       O898   2.395       .  S
Zr889       O899   2.405   1_545  S
Zr889       O900   2.403       .  S
O890        H946   0.990       .  S
O890        H954   0.990       .  S
O891        C911   1.281       .  A
O892        C913   1.284       .  A
O893       Zr903   2.510       .  S
O893        C912   1.295       .  A
O894       Zr902   2.491       .  S
O894        C913   1.294   1_565  A
O895        C912   1.275       .  A
O896       Zr904   2.388       .  S
O896        C911   1.275       .  A
O897       Zr902   2.402   1_545  S
O897       Zr904   2.389       .  S
O898       Zr903   2.403       .  S
O898       Zr904   2.379       .  S
O898        H933   0.966       .  S
O899       Zr902   2.396       .  S
O899       Zr919   2.396       .  S
O899        H936   0.965       .  S
O900       Zr903   2.392       .  S
O900       Zr919   2.387   1_545  S
Zr901       O926   2.447       .  S
Zr901       O920   2.433       .  S
Zr901       O928   2.421       .  S
Zr901       O916   2.427       .  S
Zr901       O907   2.400   1_565  S
Zr901       O908   2.397   1_565  S
Zr901       O909   2.378       .  S
Zr901       O910   2.384       .  S
Zr902       O921   2.435       .  S
Zr902       O914   2.435   1_565  S
Zr902       O915   2.467       .  S
Zr902       O908   2.412   1_565  S
Zr902       O909   2.396       .  S
Zr903       O905   2.435       .  S
Zr903       O927   2.438       .  S
Zr903       O929   2.504       .  S
Zr903       O907   2.403       .  S
Zr903       O910   2.402   1_545  S
Zr904       O930   2.436       .  S
Zr904       O931   2.435       .  S
Zr904       O906   2.437       .  S
Zr904       O907   2.390       .  S
Zr904       O908   2.376       .  S
O905        H942   0.990       .  S
O906        H937   0.990       .  S
O906        H951   0.990       .  S
O908        H934   0.965       .  S
O909       Zr919   2.371       .  S
O910       Zr919   2.381       .  S
O910        H935   0.967       .  S
C911       C1449   1.464       .  S
C912       C1859   1.492       .  S
C913       C1669   1.503       .  S
O914        H950   0.990       .  S
O915        C917   1.293       .  A
O916        C917   1.285       .  A
C917       C1766   1.496       .  S
O918       Zr919   2.438       .  S
O918        H947   0.990       .  S
Zr919       O922   2.435       .  S
Zr919       O923   2.439       .  S
Zr919       O924   2.427       .  S
O920        C925   1.284       .  A
O921        H938   0.990       .  S
O921        H953   0.990       .  S
O922        H939   0.990       .  S
O923        H943   0.990       .  S
O923        H952   0.990       .  S
O924        C925   1.283       .  A
C925       C1436   1.473       .  S
O926        H945   0.990   1_565  S
O926        H949   0.990       .  S
O927        H941   0.990       .  S
O927        H948   0.990       .  S
O928        C932   1.284   1_565  A
O929        C932   1.298       .  A
O930        H940   0.990       .  S
O931        H944   0.989       .  S
C932       C2009   1.503       .  S
C955        C956   1.532       .  S
C955        C961   1.545       .  S
C955        C959   1.538       .  S
C955       C1446   1.520       .  S
C956        H963   1.086       .  S
C956        C957   1.361       .  D
C957        C958   1.532       .  S
C957       C1699   1.472       .  S
C958        C962   1.517       .  S
C958        C960   1.533       .  S
C958        H964   1.111       .  S
C959        H965   1.086       .  S
C959        C960   1.370       .  D
C960       C1426   1.474       .  S
C961        H966   1.080       .  S
C961        C962   1.357       .  D
C962       C1496   1.457       .  S
Zr967       O968   2.442       .  S
Zr967       O969   2.422       .  S
Zr967       O970   2.435       .  S
Zr967       O973   2.387       .  S
Zr967       O975   2.372       .  S
Zr967       O976   2.391   1_554  S
Zr967       O977   2.394       .  S
Zr967       O978   2.399   1_655  S
O968       H1024   0.991       .  S
O968       H1032   0.990       .  S
O969        C989   1.281       .  A
O970        C991   1.283       .  A
O971       Zr981   2.460   1_655  S
O971        C990   1.290   1_556  A
O972       Zr980   2.480       .  S
O972        C991   1.293       .  A
O973        C990   1.277       .  A
O974       Zr982   2.440       .  S
O974        C989   1.285   1_556  A
O975       Zr980   2.404       .  S
O975       Zr982   2.385   1_554  S
O976       Zr981   2.407   1_655  S
O976       Zr982   2.377       .  S
O976       H1011   0.966       .  S
O977       Zr980   2.398       .  S
O977       Zr997   2.393   1_655  S
O977       H1014   0.965       .  S
O978       Zr981   2.398   1_554  S
O978       Zr997   2.374       .  S
Zr979      O1004   2.449       .  S
Zr979       O998   2.448       .  S
Zr979      O1006   2.411       .  S
Zr979       O994   2.375       .  S
Zr979       O985   2.393   1_455  S
Zr979       O986   2.407   1_455  S
Zr979       O987   2.377   1_556  S
Zr979       O988   2.371       .  S
Zr980       O999   2.436       .  S
Zr980       O992   2.434       .  S
Zr980       O993   2.469       .  S
Zr980       O986   2.403   1_554  S
Zr980       O987   2.394   1_655  S
Zr981       O983   2.437       .  S
Zr981      O1005   2.436   1_455  S
Zr981      O1007   2.499       .  S
Zr981       O985   2.385   1_455  S
Zr981       O988   2.392       .  S
Zr982      O1008   2.436       .  S
Zr982      O1009   2.440       .  S
Zr982       O984   2.438       .  S
Zr982       O985   2.403       .  S
Zr982       O986   2.400       .  S
O983       H1020   0.990       .  S
O984       H1015   0.990       .  S
O984       H1029   0.990       .  S
O986       H1012   0.965       .  S
O987       Zr997   2.367       .  S
O988       Zr997   2.387   1_556  S
O988       H1013   0.966       .  S
C989       C1959   1.492       .  S
C990       C1556   1.481       .  S
C991       C1729   1.501       .  S
O992       H1028   0.990       .  S
O993        C995   1.292   1_654  A
O994        C995   1.275       .  A
C995       C1416   1.483       .  S
O996       Zr997   2.435       .  S
O996       H1025   0.990       .  S
Zr997      O1000   2.435       .  S
Zr997      O1001   2.437       .  S
Zr997      O1002   2.407       .  S
O998       C1003   1.287       .  A
O999       H1016   0.990   1_655  S
O999       H1031   0.990       .  S
O1000      H1017   0.990       .  S
O1001      H1021   0.990       .  S
O1001      H1030   0.990       .  S
O1002      C1003   1.280   1_554  A
C1003      C1919   1.491       .  S
O1004      H1023   0.990   1_455  S
O1004      H1027   0.990   1_455  S
O1005      H1019   0.990       .  S
O1005      H1026   0.990       .  S
O1006      C1010   1.281       .  A
O1007      C1010   1.296       .  A
O1008      H1018   0.990       .  S
O1009      H1022   0.990       .  S
C1010      C1899   1.503       .  S
Zr1033     O1034   2.443       .  S
Zr1033     O1035   2.424       .  S
Zr1033     O1036   2.443       .  S
Zr1033     O1039   2.413   1_554  S
Zr1033     O1041   2.375       .  S
Zr1033     O1042   2.386   1_554  S
Zr1033     O1043   2.395       .  S
Zr1033     O1044   2.398   1_554  S
O1034      H1090   0.991       .  S
O1034      H1098   0.991       .  S
O1035      C1055   1.281       .  A
O1036      C1057   1.285       .  A
O1037     Zr1047   2.449       .  S
O1037      C1056   1.286       .  A
O1038     Zr1046   2.444       .  S
O1038      C1057   1.286       .  A
O1039      C1056   1.281       .  A
O1040     Zr1048   2.414   1_554  S
O1040      C1055   1.281       .  A
O1041     Zr1046   2.394       .  S
O1041     Zr1048   2.382   1_554  S
O1042     Zr1047   2.396       .  S
O1042     Zr1048   2.378       .  S
O1042      H1077   0.966       .  S
O1043     Zr1046   2.401       .  S
O1043     Zr1063   2.392   1_554  S
O1043      H1080   0.965       .  S
O1044     Zr1047   2.399       .  S
O1044     Zr1063   2.384       .  S
Zr1045     O1070   2.441       .  S
Zr1045     O1064   2.436       .  S
Zr1045     O1072   2.429       .  S
Zr1045     O1060   2.426       .  S
Zr1045     O1051   2.399       .  S
Zr1045     O1052   2.401       .  S
Zr1045     O1053   2.375       .  S
Zr1045     O1054   2.384       .  S
Zr1046     O1065   2.436       .  S
Zr1046     O1058   2.434       .  S
Zr1046     O1059   2.429       .  S
Zr1046     O1052   2.401   1_554  S
Zr1046     O1053   2.395   1_554  S
Zr1047     O1049   2.435       .  S
Zr1047     O1071   2.439       .  S
Zr1047     O1073   2.451       .  S
Zr1047     O1051   2.395       .  S
Zr1047     O1054   2.394       .  S
Zr1048     O1074   2.437       .  S
Zr1048     O1075   2.436       .  S
Zr1048     O1050   2.437   1_556  S
Zr1048     O1051   2.390       .  S
Zr1048     O1052   2.395       .  S
O1049      H1086   0.990       .  S
O1050      H1081   0.990       .  S
O1050      H1095   0.990       .  S
O1052      H1078   0.966   1_556  S
O1053     Zr1063   2.373       .  S
O1054     Zr1063   2.379       .  S
O1054      H1079   0.966       .  S
C1055      C2026   1.479       .  S
C1056      C1929   1.466       .  S
C1057      C1406   1.494       .  S
O1058      H1094   0.990       .  S
O1059      C1061   1.282       .  A
O1060      C1061   1.284   1_556  A
C1061      C1969   1.462       .  S
O1062     Zr1063   2.433   1_554  S
O1062      H1091   0.990       .  S
Zr1063     O1066   2.435   1_556  S
Zr1063     O1067   2.439       .  S
Zr1063     O1068   2.407       .  S
O1064      C1069   1.284       .  A
O1065      H1082   0.990       .  S
O1065      H1097   0.990       .  S
O1066      H1083   0.990       .  S
O1067      H1087   0.990       .  S
O1067      H1096   0.990       .  S
O1068      C1069   1.279       .  A
C1069      C1639   1.467       .  S
O1070      H1089   0.990       .  S
O1070      H1093   0.990       .  S
O1071      H1085   0.990       .  S
O1071      H1092   0.990       .  S
O1072      C1076   1.284       .  A
O1073      C1076   1.289       .  A
O1074      H1084   0.990       .  S
O1075      H1088   0.990       .  S
C1076      C2149   1.492       .  S
Zr1099     O1100   2.444       .  S
Zr1099     O1101   2.443       .  S
Zr1099     O1102   2.421       .  S
Zr1099     O1105   2.401       .  S
Zr1099     O1107   2.378   1_655  S
Zr1099     O1108   2.379       .  S
Zr1099     O1109   2.406   1_655  S
Zr1099     O1110   2.402       .  S
O1100      H1156   0.991       .  S
O1100      H1164   0.990       .  S
O1101      C1121   1.284       .  A
O1102      C1123   1.281   1_655  A
O1103     Zr1113   2.458       .  S
O1103      C1122   1.288       .  A
O1104     Zr1112   2.470       .  S
O1104      C1123   1.291       .  A
O1105      C1122   1.278       .  A
O1106     Zr1114   2.438   1_655  S
O1106      C1121   1.283       .  A
O1107     Zr1112   2.409       .  S
O1107     Zr1114   2.382       .  S
O1108     Zr1113   2.402       .  S
O1108     Zr1114   2.376   1_655  S
O1108      H1143   0.967       .  S
O1109     Zr1112   2.410       .  S
O1109     Zr1129   2.398       .  S
O1109      H1146   0.965       .  S
O1110     Zr1113   2.396       .  S
O1110     Zr1129   2.396   1_655  S
Zr1111     O1136   2.443       .  S
Zr1111     O1130   2.472       .  S
Zr1111     O1138   2.411       .  S
Zr1111     O1126   2.415       .  S
Zr1111     O1117   2.406       .  S
Zr1111     O1118   2.414       .  S
Zr1111     O1119   2.376       .  S
Zr1111     O1120   2.376   1_455  S
Zr1112     O1131   2.435       .  S
Zr1112     O1124   2.435       .  S
Zr1112     O1125   2.470       .  S
Zr1112     O1118   2.408       .  S
Zr1112     O1119   2.410       .  S
Zr1113     O1115   2.434       .  S
Zr1113     O1137   2.435       .  S
Zr1113     O1139   2.465       .  S
Zr1113     O1117   2.393   1_655  S
Zr1113     O1120   2.399       .  S
Zr1114     O1140   2.436   1_455  S
Zr1114     O1141   2.435       .  S
Zr1114     O1116   2.437       .  S
Zr1114     O1117   2.401       .  S
Zr1114     O1118   2.397       .  S
O1115      H1152   0.989       .  S
O1116      H1147   0.990       .  S
O1116      H1161   0.990       .  S
O1118      H1144   0.965       .  S
O1119     Zr1129   2.380       .  S
O1120     Zr1129   2.378   1_655  S
O1120      H1145   0.966       .  S
C1121      C1716   1.487       .  S
C1122      C2129   1.467       .  S
C1123      C1816   1.492       .  S
O1124      H1160   0.989       .  S
O1125      C1127   1.290       .  A
O1126      C1127   1.280       .  A
C1127      C1399   1.477       .  S
O1128     Zr1129   2.439   1_655  S
O1128      H1157   0.990       .  S
Zr1129     O1132   2.436       .  S
Zr1129     O1133   2.439   1_455  S
Zr1129     O1134   2.429       .  S
O1130      C1135   1.291       .  A
O1131      H1148   0.990       .  S
O1131      H1163   0.990       .  S
O1132      H1149   0.990       .  S
O1133      H1153   0.990       .  S
O1133      H1162   0.990       .  S
O1134      C1135   1.283       .  A
C1135      C1886   1.502       .  S
O1136      H1155   0.991       .  S
O1136      H1159   0.991       .  S
O1137      H1151   0.990       .  S
O1137      H1158   0.990       .  S
O1138      C1142   1.281   1_455  A
O1139      C1142   1.291       .  A
O1140      H1150   0.990       .  S
O1141      H1154   0.990       .  S
C1142      C1589   1.497       .  S
C1165      C1166   1.537       .  S
C1165      C1171   1.529       .  S
C1165      C1169   1.523       .  S
C1165      C1619   1.513       .  S
C1166      H1173   1.082       .  S
C1166      C1167   1.370       .  D
C1167      C1168   1.552       .  S
C1167      C1396   1.491       .  S
C1168      C1172   1.549       .  S
C1168      C1170   1.560       .  S
C1168      H1174   1.110       .  S
C1169      H1175   1.087       .  S
C1169      C1170   1.359       .  D
C1170      C1489   1.493       .  S
C1171      H1176   1.087       .  S
C1171      C1172   1.356       .  D
C1172      C1386   1.477       .  S
Zr1177     O1178   2.441       .  S
Zr1177     O1179   2.436       .  S
Zr1177     O1180   2.431       .  S
Zr1177     O1183   2.389       .  S
Zr1177     O1185   2.374       .  S
Zr1177     O1186   2.385       .  S
Zr1177     O1187   2.399       .  S
Zr1177     O1188   2.402       .  S
O1178      H1234   0.990       .  S
O1178      H1242   0.990       .  S
O1179      C1199   1.285       .  A
O1180      C1201   1.283       .  A
O1181     Zr1191   2.478       .  S
O1181      C1200   1.294       .  A
O1182     Zr1190   2.503       .  S
O1182      C1201   1.298       .  A
O1183      C1200   1.277       .  A
O1184     Zr1192   2.402       .  S
O1184      C1199   1.278       .  A
O1185     Zr1190   2.397       .  S
O1185     Zr1192   2.387       .  S
O1186     Zr1191   2.393       .  S
O1186     Zr1192   2.373       .  S
O1186      H1221   0.966       .  S
O1187     Zr1190   2.401       .  S
O1187     Zr1207   2.399       .  S
O1187      H1224   0.965       .  S
O1188     Zr1191   2.399       .  S
O1188     Zr1207   2.393       .  S
Zr1189     O1214   2.447       .  S
Zr1189     O1208   2.425       .  S
Zr1189     O1216   2.417       .  S
Zr1189     O1204   2.394       .  S
Zr1189     O1195   2.391       .  S
Zr1189     O1196   2.401       .  S
Zr1189     O1197   2.381       .  S
Zr1189     O1198   2.376       .  S
Zr1190     O1209   2.434       .  S
Zr1190     O1202   2.436       .  S
Zr1190     O1203   2.477       .  S
Zr1190     O1196   2.407       .  S
Zr1190     O1197   2.403       .  S
Zr1191     O1193   2.438       .  S
Zr1191     O1215   2.435       .  S
Zr1191     O1217   2.487       .  S
Zr1191     O1195   2.393       .  S
Zr1191     O1198   2.396       .  S
Zr1192     O1218   2.435       .  S
Zr1192     O1219   2.435       .  S
Zr1192     O1194   2.437       .  S
Zr1192     O1195   2.392       .  S
Zr1192     O1196   2.379       .  S
O1193      H1230   0.990       .  S
O1194      H1225   0.990       .  S
O1194      H1239   0.990       .  S
O1196      H1222   0.966       .  S
O1197     Zr1207   2.375       .  S
O1198     Zr1207   2.377       .  S
O1198      H1223   0.967       .  S
C1199      C1429   1.476       .  S
C1200      C1389   1.479       .  S
C1201      C1379   1.517       .  S
O1202      H1238   0.990       .  S
O1203      C1205   1.295       .  A
O1204      C1205   1.278       .  A
C1205      C2119   1.485       .  S
O1206     Zr1207   2.435       .  S
O1206      H1235   0.990       .  S
Zr1207     O1210   2.435       .  S
Zr1207     O1211   2.438       .  S
Zr1207     O1212   2.425       .  S
O1208      C1213   1.283       .  A
O1209      H1226   0.990       .  S
O1209      H1241   0.990       .  S
O1210      H1227   0.990       .  S
O1211      H1231   0.990       .  S
O1211      H1240   0.990       .  S
O1212      C1213   1.282       .  A
C1213      C1366   1.483       .  S
O1214      H1233   0.990       .  S
O1214      H1237   0.990       .  S
O1215      H1229   0.990       .  S
O1215      H1236   0.990       .  S
O1216      C1220   1.282       .  A
O1217      C1220   1.294       .  A
O1218      H1228   0.990       .  S
O1219      H1232   0.989       .  S
C1220      C2156   1.494       .  S
C1243      C1244   1.532       .  S
C1243      C1249   1.529       .  S
C1243      C1247   1.546       .  S
C1243      C1409   1.540       .  S
C1244      H1251   1.087       .  S
C1244      C1245   1.364       .  D
C1245      C1246   1.557       .  S
C1245      C1786   1.496       .  S
C1246      C1250   1.565       .  S
C1246      C1248   1.565       .  S
C1246      H1252   1.110       .  S
C1247      H1253   1.082       .  S
C1247      C1248   1.375       .  D
C1248      C1376   1.514       .  S
C1249      H1254   1.086       .  S
C1249      C1250   1.364       .  D
C1250      C1476   1.510       .  S
C1255      C1256   1.551       .  S
C1255      C1261   1.530   1_655  S
C1255      C1259   1.517   1_655  S
C1255      C1526   1.532       .  S
C1256      H1263   1.081       .  S
C1256      C1257   1.377       .  D
C1257      C1258   1.544   1_655  S
C1257      C2299   1.502       .  S
C1258      C1262   1.562       .  S
C1258      C1260   1.550       .  S
C1258      H1264   1.107       .  S
C1259      H1265   1.087       .  S
C1259      C1260   1.358       .  D
C1260      C1419   1.481       .  S
C1261      H1266   1.085       .  S
C1261      C1262   1.366       .  D
C1262      C1359   1.507       .  S
Zr1267     O1268   2.442       .  S
Zr1267     O1269   2.418       .  S
Zr1267     O1270   2.409       .  S
Zr1267     O1273   2.395       .  S
Zr1267     O1275   2.377       .  S
Zr1267     O1276   2.381       .  S
Zr1267     O1277   2.393       .  S
Zr1267     O1278   2.394       .  S
O1268      H1324   0.991       .  S
O1268      H1332   0.990       .  S
O1269      C1289   1.280       .  A
O1270      C1291   1.280       .  A
O1271     Zr1281   2.489       .  S
O1271      C1290   1.295       .  A
O1272     Zr1280   2.460       .  S
O1272      C1291   1.289       .  A
O1273      C1290   1.277       .  A
O1274     Zr1282   2.412       .  S
O1274      C1289   1.280       .  A
O1275     Zr1280   2.399       .  S
O1275     Zr1282   2.380       .  S
O1276     Zr1281   2.391       .  S
O1276     Zr1282   2.368       .  S
O1276      H1311   0.966       .  S
O1277     Zr1280   2.408       .  S
O1277     Zr1297   2.392       .  S
O1277      H1314   0.965       .  S
O1278     Zr1281   2.395       .  S
O1278     Zr1297   2.395       .  S
Zr1279     O1304   2.447       .  S
Zr1279     O1298   2.437       .  S
Zr1279     O1306   2.404       .  S
Zr1279     O1294   2.430       .  S
Zr1279     O1285   2.401       .  S
Zr1279     O1286   2.408       .  S
Zr1279     O1287   2.373       .  S
Zr1279     O1288   2.390       .  S
Zr1280     O1299   2.435       .  S
Zr1280     O1292   2.435       .  S
Zr1280     O1293   2.472       .  S
Zr1280     O1286   2.403       .  S
Zr1280     O1287   2.407       .  S
Zr1281     O1283   2.434       .  S
Zr1281     O1305   2.439       .  S
Zr1281     O1307   2.469       .  S
Zr1281     O1285   2.393       .  S
Zr1281     O1288   2.413       .  S
Zr1282     O1308   2.437       .  S
Zr1282     O1309   2.436       .  S
Zr1282     O1284   2.436       .  S
Zr1282     O1285   2.380       .  S
Zr1282     O1286   2.378       .  S
O1283      H1320   0.990       .  S
O1284      H1315   0.990       .  S
O1284      H1329   0.990       .  S
O1286      H1312   0.963       .  S
O1287     Zr1297   2.389       .  S
O1288     Zr1297   2.383       .  S
O1288      H1313   0.966       .  S
C1289      C1909   1.466       .  S
C1290      C1356   1.484       .  S
C1291      C1869   1.479       .  S
O1292      H1328   0.990       .  S
O1293      C1295   1.290       .  A
O1294      C1295   1.283       .  A
C1295      C1349   1.485       .  S
O1296     Zr1297   2.434       .  S
O1296      H1325   0.990       .  S
Zr1297     O1300   2.435       .  S
Zr1297     O1301   2.438       .  S
Zr1297     O1302   2.408       .  S
O1298      C1303   1.282       .  A
O1299      H1316   0.990       .  S
O1299      H1331   0.990       .  S
O1300      H1317   0.990       .  S
O1301      H1321   0.990       .  S
O1301      H1330   0.990       .  S
O1302      C1303   1.278       .  A
C1303      C1749   1.486       .  S
O1304      H1323   0.991       .  S
O1304      H1327   0.991       .  S
O1305      H1319   0.990       .  S
O1305      H1326   0.990       .  S
O1306      C1310   1.280       .  A
O1307      C1310   1.291       .  A
O1308      H1318   0.990       .  S
O1309      H1322   0.991       .  S
C1310      C1979   1.483       .  S
C1333      C1334   1.520       .  S
C1333      C1339   1.532       .  S
C1333      C1337   1.553       .  S
C1333      C1439   1.529       .  S
C1334      H1341   1.088       .  S
C1334      C1335   1.354       .  D
C1335      C1336   1.554       .  S
C1335      C2269   1.486       .  S
C1336      C1340   1.544       .  S
C1336      C1338   1.540       .  S
C1336      H1342   1.109       .  S
C1337      H1343   1.082       .  S
C1337      C1338   1.379       .  D
C1338      C1369   1.494       .  S
C1339      H1344   1.087       .  S
C1339      C1340   1.364       .  D
C1340      C1346   1.484       .  S
C1345      C1346   1.410       .  A
C1345      C1350   1.410       .  A
C1345      H1352   1.083       .  S
C1346      C1347   1.400       .  A
C1347      C1348   1.394       .  A
C1347      F1354   1.358       .  S
C1348      C1349   1.408       .  A
C1348      H1353   1.084       .  S
C1349      C1350   1.406       .  A
C1350      F1351   1.357       .  S
C1355      C1356   1.409       .  A
C1355      C1360   1.405       .  A
C1355      H1362   1.083       .  S
C1356      C1357   1.400       .  A
C1357      C1358   1.401       .  A
C1357      F1364   1.358       .  S
C1358      C1359   1.416       .  A
C1358      H1363   1.082       .  S
C1359      C1360   1.409       .  A
C1360      F1361   1.356       .  S
C1365      C1366   1.407       .  A
C1365      C1370   1.399       .  A
C1365      H1372   1.083       .  S
C1366      C1367   1.405       .  A
C1367      C1368   1.396       .  A
C1367      F1374   1.358       .  S
C1368      C1369   1.407       .  A
C1368      H1373   1.077       .  S
C1369      C1370   1.409       .  A
C1370      F1371   1.357       .  S
C1375      C1376   1.402       .  A
C1375      C1380   1.409       .  A
C1375      H1382   1.080       .  S
C1376      C1377   1.416       .  A
C1377      C1378   1.413       .  A
C1377      F1384   1.357       .  S
C1378      C1379   1.408       .  A
C1378      H1383   1.083       .  S
C1379      C1380   1.422       .  A
C1380      F1381   1.356       .  S
C1385      C1386   1.398       .  A
C1385      C1390   1.398       .  A
C1385      H1392   1.081       .  S
C1386      C1387   1.408       .  A
C1387      C1388   1.401       .  A
C1387      F1394   1.358       .  S
C1388      C1389   1.402       .  A
C1388      H1393   1.083       .  S
C1389      C1390   1.412       .  A
C1390      F1391   1.358       .  S
C1395      C1396   1.407       .  A
C1395      C1400   1.398       .  A
C1395      H1402   1.084       .  S
C1396      C1397   1.405       .  A
C1397      C1398   1.408       .  A
C1397      F1404   1.357       .  S
C1398      C1399   1.408       .  A
C1398      H1403   1.083       .  S
C1399      C1400   1.404       .  A
C1400      F1401   1.358       .  S
C1405      C1406   1.404       .  A
C1405      C1410   1.397       .  A
C1405      H1412   1.083       .  S
C1406      C1407   1.409       .  A
C1407      C1408   1.408       .  A
C1407      F1414   1.357       .  S
C1408      C1409   1.412       .  A
C1408      H1413   1.078       .  S
C1409      C1410   1.414       .  A
C1410      F1411   1.358       .  S
C1415      C1416   1.415       .  A
C1415      C1420   1.393       .  A
C1415      H1422   1.083       .  S
C1416      C1417   1.403   1_455  A
C1417      C1418   1.396       .  A
C1417      F1424   1.357   1_556  S
C1418      C1419   1.411   1_655  A
C1418      H1423   1.083       .  S
C1419      C1420   1.398       .  A
C1420      F1421   1.357       .  S
C1425      C1426   1.405       .  A
C1425      C1430   1.394       .  A
C1425      H1432   1.083       .  S
C1426      C1427   1.401       .  A
C1427      C1428   1.395       .  A
C1427      F1434   1.358       .  S
C1428      C1429   1.410       .  A
C1428      H1433   1.083       .  S
C1429      C1430   1.405       .  A
C1430      F1431   1.357       .  S
C1435      C1436   1.397       .  A
C1435      C1440   1.395       .  A
C1435      H1442   1.084       .  S
C1436      C1437   1.406       .  A
C1437      C1438   1.403       .  A
C1437      F1444   1.357       .  S
C1438      C1439   1.409       .  A
C1438      H1443   1.079       .  S
C1439      C1440   1.417       .  A
C1440      F1441   1.358       .  S
C1445      C1446   1.408       .  A
C1445      C1450   1.385       .  A
C1445      H1452   1.074       .  S
C1446      C1447   1.413       .  A
C1447      C1448   1.396       .  A
C1447      F1454   1.358       .  S
C1448      C1449   1.400       .  A
C1448      H1453   1.084       .  S
C1449      C1450   1.402       .  A
C1450      F1451   1.358       .  S
C1455      C1456   1.405       .  A
C1455      C1460   1.389       .  A
C1455      H1462   1.084   1_554  S
C1456      C1457   1.399       .  A
C1457      C1458   1.399       .  A
C1457      F1464   1.357       .  S
C1458      C1459   1.407       .  A
C1458      H1463   1.083       .  S
C1459      C1460   1.402       .  A
C1460      F1461   1.358   1_554  S
C1465      C1466   1.412   1_565  A
C1465      C1470   1.397       .  A
C1465      H1472   1.075       .  S
C1466      C1467   1.418       .  A
C1467      C1468   1.412       .  A
C1467      F1474   1.357       .  S
C1468      C1469   1.407       .  A
C1468      H1473   1.083       .  S
C1469      C1470   1.410   1_545  A
C1470      F1471   1.359       .  S
C1475      C1476   1.401       .  A
C1475      C1480   1.407       .  A
C1475      H1482   1.080       .  S
C1476      C1477   1.418       .  A
C1477      C1478   1.408       .  A
C1477      F1484   1.357       .  S
C1478      C1479   1.405       .  A
C1478      H1483   1.083       .  S
C1479      C1480   1.422       .  A
C1480      F1481   1.358       .  S
C1485      C1486   1.416       .  A
C1485      C1490   1.400       .  A
C1485      H1492   1.084       .  S
C1486      C1487   1.403       .  A
C1487      C1488   1.403       .  A
C1487      F1494   1.356       .  S
C1488      C1489   1.413       .  A
C1488      H1493   1.083       .  S
C1489      C1490   1.400       .  A
C1490      F1491   1.355       .  S
C1495      C1496   1.395       .  A
C1495      C1500   1.392       .  A
C1495      H1502   1.084       .  S
C1496      C1497   1.401       .  A
C1497      C1498   1.393       .  A
C1497      F1504   1.358       .  S
C1498      C1499   1.403       .  A
C1498      H1503   1.084       .  S
C1499      C1500   1.409       .  A
C1500      F1501   1.358       .  S
C1505      C1506   1.409       .  A
C1505      C1510   1.418       .  A
C1505      H1512   1.083       .  S
C1506      C1507   1.422       .  A
C1507      C1508   1.410       .  A
C1507      F1514   1.357       .  S
C1508      C1509   1.401       .  A
C1508      H1513   1.080       .  S
C1509      C1510   1.418       .  A
C1510      F1511   1.357       .  S
C1515      C1516   1.410       .  A
C1515      C1520   1.394       .  A
C1515      H1522   1.084       .  S
C1516      C1517   1.404       .  A
C1517      C1518   1.402       .  A
C1517      F1524   1.357       .  S
C1518      C1519   1.407       .  A
C1518      H1523   1.083       .  S
C1519      C1520   1.398       .  A
C1520      F1521   1.356       .  S
C1525      C1526   1.416   1_455  A
C1525      C1530   1.399       .  A
C1525      H1532   1.083       .  S
C1526      C1527   1.410       .  A
C1527      C1528   1.398       .  A
C1527      F1534   1.354       .  S
C1528      C1529   1.406   1_655  A
C1528      H1533   1.082       .  S
C1529      C1530   1.399       .  A
C1530      F1531   1.357   1_556  S
C1535      C1536   1.404   1_556  A
C1535      C1540   1.396       .  A
C1535      H1542   1.083       .  S
C1536      C1537   1.412       .  A
C1537      C1538   1.401       .  A
C1537      F1544   1.357       .  S
C1538      C1539   1.402       .  A
C1538      H1543   1.081       .  S
C1539      C1540   1.411   1_554  A
C1540      F1541   1.357       .  S
C1545      C1546   1.413   1_545  A
C1545      C1550   1.409       .  A
C1545      H1552   1.083       .  S
C1546      C1547   1.410       .  A
C1547      C1548   1.411       .  A
C1547      F1554   1.357       .  S
C1548      C1549   1.413   1_565  A
C1548      H1553   1.083       .  S
C1549      C1550   1.408       .  A
C1550      F1551   1.355       .  S
C1555      C1556   1.411       .  A
C1555      C1560   1.389       .  A
C1555      H1562   1.082       .  S
C1556      C1557   1.405   1_655  A
C1557      C1558   1.399       .  A
C1557      F1564   1.357   1_554  S
C1558      C1559   1.410   1_455  A
C1558      H1563   1.083       .  S
C1559      C1560   1.398       .  A
C1560      F1561   1.357       .  S
C1565      C1566   1.406       .  A
C1565      C1570   1.394       .  A
C1565      H1572   1.083       .  S
C1566      C1567   1.404       .  A
C1567      C1568   1.398       .  A
C1567      F1574   1.357       .  S
C1568      C1569   1.405       .  A
C1568      H1573   1.083       .  S
C1569      C1570   1.404       .  A
C1570      F1571   1.358       .  S
C1575      C1576   1.408       .  A
C1575      C1580   1.387       .  A
C1575      H1582   1.081       .  S
C1576      C1577   1.413   1_455  A
C1577      C1578   1.394       .  A
C1577      F1584   1.357       .  S
C1578      C1579   1.398   1_655  A
C1578      H1583   1.084       .  S
C1579      C1580   1.400       .  A
C1580      F1581   1.359       .  S
C1585      C1586   1.406   1_455  A
C1585      C1590   1.394       .  A
C1585      H1592   1.076       .  S
C1586      C1587   1.416       .  A
C1587      C1588   1.406       .  A
C1587      F1594   1.358       .  S
C1588      C1589   1.406       .  A
C1588      H1593   1.083       .  S
C1589      C1590   1.414   1_655  A
C1590      F1591   1.357       .  S
C1595      C1596   1.403   1_455  A
C1595      C1600   1.389   1_455  A
C1595      H1602   1.082       .  S
C1596      C1597   1.407       .  A
C1597      C1598   1.406       .  A
C1597      F1604   1.357       .  S
C1598      C1599   1.406       .  A
C1598      H1603   1.083       .  S
C1599      C1600   1.401       .  A
C1600      F1601   1.358   1_655  S
C1605      C1606   1.402       .  A
C1605      C1610   1.401       .  A
C1605      H1612   1.084       .  S
C1606      C1607   1.407       .  A
C1607      C1608   1.398       .  A
C1607      F1614   1.358       .  S
C1608      C1609   1.399       .  A
C1608      H1613   1.083       .  S
C1609      C1610   1.408       .  A
C1610      F1611   1.358       .  S
C1615      C1616   1.399       .  A
C1615      C1620   1.384       .  A
C1615      H1622   1.083       .  S
C1616      C1617   1.408       .  A
C1617      C1618   1.394       .  A
C1617      F1624   1.358       .  S
C1618      C1619   1.407       .  A
C1618      H1623   1.077       .  S
C1619      C1620   1.411       .  A
C1620      F1621   1.359       .  S
C1625      C1626   1.407       .  A
C1625      C1630   1.388       .  A
C1625      H1632   1.083       .  S
C1626      C1627   1.402       .  A
C1627      C1628   1.394       .  A
C1627      F1634   1.358       .  S
C1628      C1629   1.413       .  A
C1628      H1633   1.075       .  S
C1629      C1630   1.407       .  A
C1630      F1631   1.358       .  S
C1635      C1636   1.404       .  A
C1635      C1640   1.401       .  A
C1635      H1642   1.083       .  S
C1636      C1637   1.402       .  A
C1637      C1638   1.391       .  A
C1637      F1644   1.356       .  S
C1638      C1639   1.402       .  A
C1638      H1643   1.084       .  S
C1639      C1640   1.405       .  A
C1640      F1641   1.357       .  S
C1645      C1646   1.409       .  A
C1645      C1650   1.392       .  A
C1645      H1652   1.077       .  S
C1646      C1647   1.415       .  A
C1647      C1648   1.400       .  A
C1647      F1654   1.358       .  S
C1648      C1649   1.400       .  A
C1648      H1653   1.083       .  S
C1649      C1650   1.403       .  A
C1650      F1651   1.358       .  S
C1655      C1656   1.402       .  A
C1655      C1660   1.402       .  A
C1655      H1662   1.083       .  S
C1656      C1657   1.410       .  A
C1657      C1658   1.399       .  A
C1657      F1664   1.358       .  S
C1658      C1659   1.400       .  A
C1658      H1663   1.084       .  S
C1659      C1660   1.407       .  A
C1660      F1661   1.357       .  S
C1665      C1666   1.415       .  A
C1665      C1670   1.404       .  A
C1665      H1672   1.078       .  S
C1666      C1667   1.420   1_545  A
C1667      C1668   1.417       .  A
C1667      F1674   1.356       .  S
C1668      C1669   1.408   1_565  A
C1668      H1673   1.083       .  S
C1669      C1670   1.407       .  A
C1670      F1671   1.358       .  S
C1675      C1676   1.408       .  A
C1675      C1680   1.409       .  A
C1675      H1682   1.083       .  S
C1676      C1677   1.404   1_545  A
C1677      C1678   1.404       .  A
C1677      F1684   1.357       .  S
C1678      C1679   1.411   1_565  A
C1678      H1683   1.083       .  S
C1679      C1680   1.409       .  A
C1680      F1681   1.357       .  S
C1685      C1686   1.410       .  A
C1685      C1690   1.416       .  A
C1685      H1692   1.083       .  S
C1686      C1687   1.407       .  A
C1687      C1688   1.398       .  A
C1687      F1694   1.358       .  S
C1688      C1689   1.408       .  A
C1688      H1693   1.083       .  S
C1689      C1690   1.412       .  A
C1690      F1691   1.357       .  S
C1695      C1696   1.400       .  A
C1695      C1700   1.392       .  A
C1695      H1702   1.084       .  S
C1696      C1697   1.406       .  A
C1697      C1698   1.392       .  A
C1697      F1704   1.358       .  S
C1698      C1699   1.401       .  A
C1698      H1703   1.083       .  S
C1699      C1700   1.407       .  A
C1700      F1701   1.357       .  S
C1705      C1706   1.403       .  A
C1705      C1710   1.393       .  A
C1705      H1712   1.083       .  S
C1706      C1707   1.410       .  A
C1707      C1708   1.404       .  A
C1707      F1714   1.357       .  S
C1708      C1709   1.402       .  A
C1708      H1713   1.083       .  S
C1709      C1710   1.403       .  A
C1710      F1711   1.358       .  S
C1715      C1716   1.400       .  A
C1715      C1720   1.399       .  A
C1715      H1722   1.084       .  S
C1716      C1717   1.408       .  A
C1717      C1718   1.408       .  A
C1717      F1724   1.357       .  S
C1718      C1719   1.412       .  A
C1718      H1723   1.079       .  S
C1719      C1720   1.417       .  A
C1720      F1721   1.358       .  S
C1725      C1726   1.415       .  A
C1725      C1730   1.411       .  A
C1725      H1732   1.082       .  S
C1726      C1727   1.413       .  A
C1727      C1728   1.405       .  A
C1727      F1734   1.353       .  S
C1728      C1729   1.407       .  A
C1728      H1733   1.083       .  S
C1729      C1730   1.408       .  A
C1730      F1731   1.357       .  S
C1735      C1736   1.402       .  A
C1735      C1740   1.408       .  A
C1735      H1742   1.080       .  S
C1736      C1737   1.414       .  A
C1737      C1738   1.409       .  A
C1737      F1744   1.357       .  S
C1738      C1739   1.408       .  A
C1738      H1743   1.083       .  S
C1739      C1740   1.419       .  A
C1740      F1741   1.357       .  S
C1745      C1746   1.399       .  A
C1745      C1750   1.395       .  A
C1745      H1752   1.083       .  S
C1746      C1747   1.402       .  A
C1747      C1748   1.401       .  A
C1747      F1754   1.356       .  S
C1748      C1749   1.409       .  A
C1748      H1753   1.083       .  S
C1749      C1750   1.412       .  A
C1750      F1751   1.358       .  S
C1755      C1756   1.406       .  A
C1755      C1760   1.402       .  A
C1755      H1762   1.083       .  S
C1756      C1757   1.402       .  A
C1757      C1758   1.404       .  A
C1757      F1764   1.357       .  S
C1758      C1759   1.408       .  A
C1758      H1763   1.083       .  S
C1759      C1760   1.403       .  A
C1760      F1761   1.357       .  S
C1765      C1766   1.407       .  A
C1765      C1770   1.404       .  A
C1765      H1772   1.083       .  S
C1766      C1767   1.414       .  A
C1767      C1768   1.399       .  A
C1767      F1774   1.357       .  S
C1768      C1769   1.402       .  A
C1768      H1773   1.080       .  S
C1769      C1770   1.414       .  A
C1770      F1771   1.357       .  S
C1775      C1776   1.409       .  A
C1775      C1780   1.397       .  A
C1775      H1782   1.078       .  S
C1776      C1777   1.416       .  A
C1777      C1778   1.398       .  A
C1777      F1784   1.357       .  S
C1778      C1779   1.399       .  A
C1778      H1783   1.084       .  S
C1779      C1780   1.406       .  A
C1780      F1781   1.358       .  S
C1785      C1786   1.404       .  A
C1785      C1790   1.401       .  A
C1785      H1792   1.084       .  S
C1786      C1787   1.409       .  A
C1787      C1788   1.414       .  A
C1787      F1794   1.356       .  S
C1788      C1789   1.408       .  A
C1788      H1793   1.083       .  S
C1789      C1790   1.410       .  A
C1790      F1791   1.358       .  S
C1795      C1796   1.411       .  A
C1795      C1800   1.419       .  A
C1795      H1802   1.083       .  S
C1796      C1797   1.415       .  A
C1797      C1798   1.404       .  A
C1797      F1804   1.358       .  S
C1798      C1799   1.404       .  A
C1798      H1803   1.084       .  S
C1799      C1800   1.413       .  A
C1800      F1801   1.357       .  S
C1805      C1806   1.406       .  A
C1805      C1810   1.403       .  A
C1805      H1812   1.084       .  S
C1806      C1807   1.400       .  A
C1807      C1808   1.397       .  A
C1807      F1814   1.358       .  S
C1808      C1809   1.406       .  A
C1808      H1813   1.083       .  S
C1809      C1810   1.405       .  A
C1810      F1811   1.357       .  S
C1815      C1816   1.407   1_655  A
C1815      C1820   1.398       .  A
C1815      H1822   1.084       .  S
C1816      C1817   1.407       .  A
C1817      C1818   1.408       .  A
C1817      F1824   1.357       .  S
C1818      C1819   1.412       .  A
C1818      H1823   1.083       .  S
C1819      C1820   1.406   1_455  A
C1820      F1821   1.352       .  S
C1825      C1826   1.410       .  A
C1825      C1830   1.403       .  A
C1825      H1832   1.081   1_455  S
C1826      C1827   1.417       .  A
C1827      C1828   1.389       .  A
C1827      F1834   1.357       .  S
C1828      C1829   1.396       .  A
C1828      H1833   1.084       .  S
C1829      C1830   1.406       .  A
C1830      F1831   1.358   1_455  S
C1835      C1836   1.406       .  A
C1835      C1840   1.397       .  A
C1835      H1842   1.077       .  S
C1836      C1837   1.419       .  A
C1837      C1838   1.404       .  A
C1837      F1844   1.358       .  S
C1838      C1839   1.400       .  A
C1838      H1843   1.083       .  S
C1839      C1840   1.411       .  A
C1840      F1841   1.359       .  S
C1845      C1846   1.401       .  A
C1845      C1850   1.389       .  A
C1845      H1852   1.076       .  S
C1846      C1847   1.415       .  A
C1847      C1848   1.407       .  A
C1847      F1854   1.356       .  S
C1848      C1849   1.407       .  A
C1848      H1853   1.083       .  S
C1849      C1850   1.413       .  A
C1850      F1851   1.356       .  S
C1855      C1856   1.408       .  A
C1855      C1860   1.409       .  A
C1855      H1862   1.082       .  S
C1856      C1857   1.401       .  A
C1857      C1858   1.402       .  A
C1857      F1864   1.358       .  S
C1858      C1859   1.412       .  A
C1858      H1863   1.084       .  S
C1859      C1860   1.407       .  A
C1860      F1861   1.357       .  S
C1865      C1866   1.414       .  A
C1865      C1870   1.402       .  A
C1865      H1872   1.082       .  S
C1866      C1867   1.415       .  A
C1867      C1868   1.398       .  A
C1867      F1874   1.356       .  S
C1868      C1869   1.404       .  A
C1868      H1873   1.084       .  S
C1869      C1870   1.403       .  A
C1870      F1871   1.357       .  S
C1875      C1876   1.400       .  A
C1875      C1880   1.395       .  A
C1875      H1882   1.082       .  S
C1876      C1877   1.409       .  A
C1877      C1878   1.399       .  A
C1877      F1884   1.357       .  S
C1878      C1879   1.407       .  A
C1878      H1883   1.083       .  S
C1879      C1880   1.413       .  A
C1880      F1881   1.357       .  S
C1885      C1886   1.408       .  A
C1885      C1890   1.408       .  A
C1885      H1892   1.083       .  S
C1886      C1887   1.415       .  A
C1887      C1888   1.405       .  A
C1887      F1894   1.357       .  S
C1888      C1889   1.401       .  A
C1888      H1893   1.083       .  S
C1889      C1890   1.409       .  A
C1890      F1891   1.357       .  S
C1895      C1896   1.411       .  A
C1895      C1900   1.417       .  A
C1895      H1902   1.083       .  S
C1896      C1897   1.406       .  A
C1897      C1898   1.399       .  A
C1897      F1904   1.358       .  S
C1898      C1899   1.410       .  A
C1898      H1903   1.082       .  S
C1899      C1900   1.410       .  A
C1900      F1901   1.356       .  S
C1905      C1906   1.399       .  A
C1905      C1910   1.390       .  A
C1905      H1912   1.081       .  S
C1906      C1907   1.401       .  A
C1907      C1908   1.399       .  A
C1907      F1914   1.357       .  S
C1908      C1909   1.405       .  A
C1908      H1913   1.083       .  S
C1909      C1910   1.405       .  A
C1910      F1911   1.358       .  S
C1915      C1916   1.405       .  A
C1915      C1920   1.403       .  A
C1915      H1922   1.083       .  S
C1916      C1917   1.404   1_556  A
C1917      C1918   1.395       .  A
C1917      F1924   1.358       .  S
C1918      C1919   1.411   1_554  A
C1918      H1923   1.083       .  S
C1919      C1920   1.410       .  A
C1920      F1921   1.357       .  S
C1925      C1926   1.404       .  A
C1925      C1930   1.394       .  A
C1925      H1932   1.084       .  S
C1926      C1927   1.404       .  A
C1927      C1928   1.403       .  A
C1927      F1934   1.357       .  S
C1928      C1929   1.406       .  A
C1928      H1933   1.083       .  S
C1929      C1930   1.402       .  A
C1930      F1931   1.358       .  S
C1935      C1936   1.408       .  A
C1935      C1940   1.393       .  A
C1935      H1942   1.079       .  S
C1936      C1937   1.417       .  A
C1937      C1938   1.404       .  A
C1937      F1944   1.357       .  S
C1938      C1939   1.403       .  A
C1938      H1943   1.083       .  S
C1939      C1940   1.408       .  A
C1940      F1941   1.358       .  S
C1945      C1946   1.393       .  A
C1945      C1950   1.391       .  A
C1945      H1952   1.081       .  S
C1946      C1947   1.408       .  A
C1947      C1948   1.401       .  A
C1947      F1954   1.357       .  S
C1948      C1949   1.403       .  A
C1948      H1953   1.083       .  S
C1949      C1950   1.413       .  A
C1950      F1951   1.358       .  S
C1955      C1956   1.407       .  A
C1955      C1960   1.397       .  A
C1955      H1962   1.083       .  S
C1956      C1957   1.405   1_556  A
C1957      C1958   1.402       .  A
C1957      F1964   1.354       .  S
C1958      C1959   1.411       .  A
C1958      H1963   1.083       .  S
C1959      C1960   1.409   1_554  A
C1960      F1961   1.357       .  S
C1965      C1966   1.401       .  A
C1965      C1970   1.400       .  A
C1965      H1972   1.084       .  S
C1966      C1967   1.407       .  A
C1967      C1968   1.393       .  A
C1967      F1974   1.358       .  S
C1968      C1969   1.399       .  A
C1968      H1973   1.084       .  S
C1969      C1970   1.405       .  A
C1970      F1971   1.357       .  S
C1975      C1976   1.418       .  A
C1975      C1980   1.406       .  A
C1975      H1982   1.077       .  S
C1976      C1977   1.408       .  A
C1977      C1978   1.391       .  A
C1977      F1984   1.358       .  S
C1978      C1979   1.405       .  A
C1978      H1983   1.084       .  S
C1979      C1980   1.403       .  A
C1980      F1981   1.357       .  S
C1985      C1986   1.397       .  A
C1985      C1990   1.397       .  A
C1985      H1992   1.080       .  S
C1986      C1987   1.413       .  A
C1987      C1988   1.400       .  A
C1987      F1994   1.358       .  S
C1988      C1989   1.404       .  A
C1988      H1993   1.083       .  S
C1989      C1990   1.417       .  A
C1990      F1991   1.357       .  S
C1995      C1996   1.403   1_545  A
C1995      C2000   1.409       .  A
C1995      H2002   1.080       .  S
C1996      C1997   1.411       .  A
C1997      C1998   1.405       .  A
C1997      F2004   1.358       .  S
C1998      C1999   1.408       .  A
C1998      H2003   1.083       .  S
C1999      C2000   1.417   1_565  A
C2000      F2001   1.356       .  S
C2005      C2006   1.409       .  A
C2005      C2010   1.400       .  A
C2005      H2012   1.083       .  S
C2006      C2007   1.415   1_565  A
C2007      C2008   1.419       .  A
C2007      F2014   1.356       .  S
C2008      C2009   1.411       .  A
C2008      H2013   1.083       .  S
C2009      C2010   1.409   1_545  A
C2010      F2011   1.358       .  S
C2015      C2016   1.407       .  A
C2015      C2020   1.397       .  A
C2015      H2022   1.084       .  S
C2016      C2017   1.406       .  A
C2017      C2018   1.404       .  A
C2017      F2024   1.357       .  S
C2018      C2019   1.405       .  A
C2018      H2023   1.083       .  S
C2019      C2020   1.401       .  A
C2020      F2021   1.358       .  S
C2025      C2026   1.403       .  A
C2025      C2030   1.393       .  A
C2025      H2032   1.083       .  S
C2026      C2027   1.407       .  A
C2027      C2028   1.397       .  A
C2027      F2034   1.358       .  S
C2028      C2029   1.410       .  A
C2028      H2033   1.077       .  S
C2029      C2030   1.411       .  A
C2030      F2031   1.358       .  S
C2035      C2036   1.401       .  A
C2035      C2040   1.392       .  A
C2035      H2042   1.082       .  S
C2036      C2037   1.415       .  A
C2037      C2038   1.404       .  A
C2037      F2044   1.357       .  S
C2038      C2039   1.399       .  A
C2038      H2043   1.083   1_554  S
C2039      C2040   1.406       .  A
C2040      F2041   1.358       .  S
C2045      C2046   1.409   1_556  A
C2045      C2050   1.396       .  A
C2045      H2052   1.083       .  S
C2046      C2047   1.406       .  A
C2047      C2048   1.391       .  A
C2047      F2054   1.357       .  S
C2048      C2049   1.397   1_554  A
C2048      H2053   1.074       .  S
C2049      C2050   1.403       .  A
C2050      F2051   1.358       .  S
C2055      C2056   1.405       .  A
C2055      C2060   1.384       .  A
C2055      H2062   1.083       .  S
C2056      C2057   1.405       .  A
C2057      C2058   1.399   1_556  A
C2057      F2064   1.356   1_556  S
C2058      C2059   1.407   1_554  A
C2058      H2063   1.083       .  S
C2059      C2060   1.404       .  A
C2060      F2061   1.358       .  S
C2065      C2066   1.408       .  A
C2065      C2070   1.397       .  A
C2065      H2072   1.084       .  S
C2066      C2067   1.399       .  A
C2067      C2068   1.397       .  A
C2067      F2074   1.358       .  S
C2068      C2069   1.409       .  A
C2068      H2073   1.073       .  S
C2069      C2070   1.408       .  A
C2070      F2071   1.357       .  S
C2075      C2076   1.407       .  A
C2075      C2080   1.414       .  A
C2075      H2082   1.083       .  S
C2076      C2077   1.415       .  A
C2077      C2078   1.411       .  A
C2077      F2084   1.357       .  S
C2078      C2079   1.407       .  A
C2078      H2083   1.082       .  S
C2079      C2080   1.419       .  A
C2080      F2081   1.357       .  S
C2085      C2086   1.404       .  A
C2085      C2090   1.406       .  A
C2085      H2092   1.083       .  S
C2086      C2087   1.417       .  A
C2087      C2088   1.398       .  A
C2087      F2094   1.358       .  S
C2088      C2089   1.397       .  A
C2088      H2093   1.077       .  S
C2089      C2090   1.416       .  A
C2090      F2091   1.357       .  S
C2095      C2096   1.404       .  A
C2095      C2100   1.403       .  A
C2095      H2102   1.083       .  S
C2096      C2097   1.409       .  A
C2097      C2098   1.410       .  A
C2097      F2104   1.357       .  S
C2098      C2099   1.407       .  A
C2098      H2103   1.083       .  S
C2099      C2100   1.409       .  A
C2100      F2101   1.358       .  S
C2105      C2106   1.406       .  A
C2105      C2110   1.403       .  A
C2105      H2112   1.083       .  S
C2106      C2107   1.404       .  A
C2107      C2108   1.397       .  A
C2107      F2114   1.358       .  S
C2108      C2109   1.408       .  A
C2108      H2113   1.083       .  S
C2109      C2110   1.406       .  A
C2110      F2111   1.357       .  S
C2115      C2116   1.407       .  A
C2115      C2120   1.399       .  A
C2115      H2122   1.084       .  S
C2116      C2117   1.397       .  A
C2117      C2118   1.397       .  A
C2117      F2124   1.356       .  S
C2118      C2119   1.413       .  A
C2118      H2123   1.083       .  S
C2119      C2120   1.406       .  A
C2120      F2121   1.357       .  S
C2125      C2126   1.404       .  A
C2125      C2130   1.403       .  A
C2125      H2132   1.083       .  S
C2126      C2127   1.406       .  A
C2127      C2128   1.397       .  A
C2127      F2134   1.358       .  S
C2128      C2129   1.402       .  A
C2128      H2133   1.084       .  S
C2129      C2130   1.406       .  A
C2130      F2131   1.358       .  S
C2135      C2136   1.397       .  A
C2135      C2140   1.392       .  A
C2135      H2142   1.084       .  S
C2136      C2137   1.401       .  A
C2137      C2138   1.400       .  A
C2137      F2144   1.357       .  S
C2138      C2139   1.411       .  A
C2138      H2143   1.079       .  S
C2139      C2140   1.416       .  A
C2140      F2141   1.358       .  S
C2145      C2146   1.400       .  A
C2145      C2150   1.400       .  A
C2145      H2152   1.081       .  S
C2146      C2147   1.404       .  A
C2147      C2148   1.402       .  A
C2147      F2154   1.357       .  S
C2148      C2149   1.408       .  A
C2148      H2153   1.083       .  S
C2149      C2150   1.413       .  A
C2150      F2151   1.358       .  S
C2155      C2156   1.407       .  A
C2155      C2160   1.402       .  A
C2155      H2162   1.084       .  S
C2156      C2157   1.408       .  A
C2157      C2158   1.409       .  A
C2157      F2164   1.357       .  S
C2158      C2159   1.410       .  A
C2158      H2163   1.082       .  S
C2159      C2160   1.411       .  A
C2160      F2161   1.357       .  S
C2165      C2166   1.406       .  A
C2165      C2170   1.398       .  A
C2165      H2172   1.083       .  S
C2166      C2167   1.412       .  A
C2167      C2168   1.407       .  A
C2167      F2174   1.357       .  S
C2168      C2169   1.412       .  A
C2168      H2173   1.083       .  S
C2169      C2170   1.409       .  A
C2170      F2171   1.353       .  S
C2175      C2176   1.404       .  A
C2175      C2180   1.386       .  A
C2175      H2182   1.083       .  S
C2176      C2177   1.405       .  A
C2177      C2178   1.393       .  A
C2177      F2184   1.358       .  S
C2178      C2179   1.411       .  A
C2178      H2183   1.076       .  S
C2179      C2180   1.407       .  A
C2180      F2181   1.358       .  S
C2185      C2186   1.410       .  A
C2185      C2190   1.389       .  A
C2185      H2192   1.083       .  S
C2186      C2187   1.408       .  A
C2187      C2188   1.407       .  A
C2187      F2194   1.357       .  S
C2188      C2189   1.411       .  A
C2188      H2193   1.083       .  S
C2189      C2190   1.402       .  A
C2190      F2191   1.356       .  S
C2195      C2196   1.407       .  A
C2195      C2200   1.399       .  A
C2195      H2202   1.083       .  S
C2196      C2197   1.409       .  A
C2197      C2198   1.392       .  A
C2197      F2204   1.356       .  S
C2198      C2199   1.403       .  A
C2198      H2203   1.082       .  S
C2199      C2200   1.409       .  A
C2200      F2201   1.358       .  S
C2205      C2206   1.406       .  A
C2205      C2210   1.387       .  A
C2205      H2212   1.083       .  S
C2206      C2207   1.410       .  A
C2207      C2208   1.394       .  A
C2207      F2214   1.357       .  S
C2208      C2209   1.398       .  A
C2208      H2213   1.080       .  S
C2209      C2210   1.401       .  A
C2210      F2211   1.358       .  S
C2215      C2216   1.402   1_545  A
C2215      C2220   1.406       .  A
C2215      H2222   1.083       .  S
C2216      C2217   1.408       .  A
C2217      C2218   1.411       .  A
C2217      F2224   1.357       .  S
C2218      C2219   1.410   1_565  A
C2218      H2223   1.083       .  S
C2219      C2220   1.415       .  A
C2220      F2221   1.357       .  S
C2225      C2226   1.408   1_565  A
C2225      C2230   1.405       .  A
C2225      H2232   1.083       .  S
C2226      C2227   1.408       .  A
C2227      C2228   1.408       .  A
C2227      F2234   1.358       .  S
C2228      C2229   1.418       .  A
C2228      H2233   1.077       .  S
C2229      C2230   1.413   1_545  A
C2230      F2231   1.357       .  S
C2235      C2236   1.406       .  A
C2235      C2240   1.405       .  A
C2235      H2242   1.083       .  S
C2236      C2237   1.416       .  A
C2237      C2238   1.404       .  A
C2237      F2244   1.357       .  S
C2238      C2239   1.401       .  A
C2238      H2243   1.082       .  S
C2239      C2240   1.412       .  A
C2240      F2241   1.357       .  S
C2245      C2246   1.403       .  A
C2245      C2250   1.401       .  A
C2245      H2252   1.084       .  S
C2246      C2247   1.402       .  A
C2247      C2248   1.406       .  A
C2247      F2254   1.358       .  S
C2248      C2249   1.418       .  A
C2248      H2253   1.077       .  S
C2249      C2250   1.413       .  A
C2250      F2251   1.357       .  S
C2255      C2256   1.406       .  A
C2255      C2260   1.404       .  A
C2255      H2262   1.083       .  S
C2256      C2257   1.413       .  A
C2257      C2258   1.401       .  A
C2257      F2264   1.357       .  S
C2258      C2259   1.405       .  A
C2258      H2263   1.080       .  S
C2259      C2260   1.414       .  A
C2260      F2261   1.356       .  S
C2265      C2266   1.406       .  A
C2265      C2270   1.400       .  A
C2265      H2272   1.083       .  S
C2266      C2267   1.408       .  A
C2267      C2268   1.400       .  A
C2267      F2274   1.357       .  S
C2268      C2269   1.407       .  A
C2268      H2273   1.084       .  S
C2269      C2270   1.404       .  A
C2270      F2271   1.352       .  S
C2275      C2276   1.406       .  A
C2275      C2280   1.404       .  A
C2275      H2282   1.084       .  S
C2276      C2277   1.409       .  A
C2277      C2278   1.413       .  A
C2277      F2284   1.357       .  S
C2278      C2279   1.409       .  A
C2278      H2283   1.083       .  S
C2279      C2280   1.411       .  A
C2280      F2281   1.357       .  S
C2285      C2286   1.404       .  A
C2285      C2290   1.394       .  A
C2285      H2292   1.084       .  S
C2286      C2287   1.399       .  A
C2287      C2288   1.392       .  A
C2287      F2294   1.358       .  S
C2288      C2289   1.414       .  A
C2288      H2293   1.083       .  S
C2289      C2290   1.410       .  A
C2290      F2291   1.355       .  S
C2295      C2296   1.416       .  A
C2295      C2300   1.394       .  A
C2295      H2302   1.082       .  S
C2296      C2297   1.411       .  A
C2297      C2298   1.421       .  A
C2297      F2304   1.356       .  S
C2298      C2299   1.414       .  A
C2298      H2303   1.083       .  S
C2299      C2300   1.400       .  A
C2300      F2301   1.358       .  S
