geometry optimzed in LAMMPS
_audit_creation_date              2020-11-30 
_audit_creation_method            'lammps2cif' 
_symmetry_space_group_name_H-M    'P1' 
_symmetry_Int_Tables_number       1 
_symmetry_cell_setting            triclinic 
loop_ 
_symmetry_equiv_pos_as_xyz 
  x,y,z 
_cell_length_a                    37.05088647 
_cell_length_b                    37.05615917045306 
_cell_length_c                    37.04599970046413 
_cell_angle_alpha                 89.69456870841388 
_cell_angle_beta                  89.69314868367114 
_cell_angle_gamma                 89.99971667655599 
loop_ 
_atom_site_label 
_atom_site_type_symbol 
_atom_site_fract_x 
_atom_site_fract_y 
_atom_site_fract_z 
_atom_site_charge 
C1          C  0.34829589  0.13186357  0.10344987     0.04000
C2          C  0.34859829  0.10517522  0.13028058    -0.12100
C3          C  0.37493723  0.10589818  0.15716575     0.01500
C4          C  0.40095937  0.13317536  0.15728094    -0.10700
C5          C  0.40069283  0.15985066  0.13047905     0.04000
C6          C  0.37435609  0.15926525  0.10351546    -0.10100
H7          H  0.32829450  0.08409143  0.13038618     0.09600
H8          H  0.42135019  0.13364667  0.17817571     0.07100
H9          H  0.37402566  0.18008206  0.08284891     0.07000
C10         C  0.09897980  0.35516290  0.13227280     0.04000
C11         C  0.12623110  0.35493878  0.10604898    -0.12100
C12         C  0.15300063  0.38149977  0.10629216    -0.00300
C13         C  0.15259749  0.40829108  0.13275016    -0.10700
C14         C  0.12525360  0.40856666  0.15895545     0.04000
C15         C  0.09840203  0.38199362  0.15873407    -0.10100
H16         H  0.12653021  0.33424729  0.08545024     0.09600
H17         H  0.17342924  0.42885088  0.13291423     0.07100
H18         H  0.07729548  0.38209004  0.17911558     0.07000
C19         C  0.12424931  0.10450579  0.35562928     0.04000
C20         C  0.15101093  0.10477287  0.38209303    -0.12100
C21         C  0.15076479  0.13151183  0.40858954     0.01500
C22         C  0.12382580  0.15791896  0.40867523    -0.10700
C23         C  0.09712252  0.15758692  0.38215744     0.04000
C24         C  0.09727951  0.13089839  0.35562507    -0.10100
H25         H  0.17191249  0.08428516  0.38206979     0.09600
H26         H  0.12368887  0.17866244  0.42921878     0.07100
H27         H  0.07659034  0.13073199  0.33502642     0.07000
O28         O  0.46217689  0.00739812  0.28595883    -0.77600
C29         C  0.37475762  0.07767920  0.32657879     0.83400
O30         O  0.35342365  0.43367420  0.30147716    -0.78700
O31         O  0.28714735  0.03697784  0.25636054    -0.80200
O32         O  0.39858505  0.05315903  0.18303736    -0.80000
O33         O  0.46405445  0.00751649  0.22612400    -0.78600
Zn34       Zn  0.40797458  0.00784380  0.29846037     1.55700
O35         O  0.35222209  0.08045620  0.21075217    -0.80000
Cd36       Cd  0.40895495  0.00798024  0.21377684     1.59700
Cd37       Cd  0.34282942  0.46467505  0.25638967     1.59600
O38         O  0.39873830  0.46332802  0.18273294    -0.80000
O39         O  0.37588485  0.00752270  0.25679602    -1.90500
Cd40       Cd  0.34221433  0.04985218  0.25625552     1.59900
O41         O  0.35313188  0.43475547  0.21070751    -0.80000
O42         O  0.35173869  0.08056277  0.30132684    -0.78600
C43         C  0.37598293  0.43738838  0.32703013     0.83900
C44         C  0.48012905  0.00720391  0.25646121     0.83600
O45         O  0.39760255  0.05202521  0.32823173    -0.77600
C46         C  0.37524799  0.07828667  0.18520970     0.84400
O47         O  0.39780001  0.46387033  0.32879316    -0.77700
C48         C  0.37592542  0.43771399  0.18499144     0.84500
C49         C  0.27034175  0.00695252  0.25662722     0.84800
O50         O  0.28746221  0.47706533  0.25679641    -0.80100
C51         C  0.37479614  0.10490098  0.35484819     0.04000
C52         C  0.34793916  0.10446810  0.38157871    -0.12100
C53         C  0.34763543  0.13098832  0.40832582     0.01500
C54         C  0.37406179  0.15792511  0.40833189    -0.10700
C55         C  0.40083357  0.15835795  0.38160560     0.04000
C56         C  0.40126509  0.13183862  0.35485678    -0.10100
H57         H  0.32728101  0.08373584  0.38144578     0.09600
H58         H  0.37372993  0.17854223  0.42900393     0.07100
H59         H  0.42201094  0.13222859  0.33410703     0.07000
O60         O  0.27908677  0.04443631  0.00686836    -0.77600
C61         C  0.31936270  0.13122174  0.43580881     0.83400
O62         O  0.29420098  0.15435068  0.07966764    -0.78700
O63         O  0.25012940  0.21985664  0.47672367    -0.80200
O64         O  0.17627591  0.10860309  0.46171832    -0.80000
O65         O  0.21923856  0.04340787  0.00683499    -0.78600
Zn66       Zn  0.29157606  0.09876380  0.00657497     1.55700
O67         O  0.20381495  0.15483819  0.43378474    -0.80000
Cd68       Cd  0.20678494  0.09842657  0.00682051     1.59700
Cd69       Cd  0.24900490  0.16428993  0.04927085     1.59600
O70         O  0.17566290  0.10859050  0.05175653    -0.80000
O71         O  0.24980873  0.13111818  0.00669204    -1.90500
Cd72       Cd  0.24924042  0.16467122  0.46406528     1.59900
O73         O  0.20352300  0.15398172  0.07999110    -0.80000
O74         O  0.29402106  0.15423313  0.43282606    -0.78600
C75         C  0.31996334  0.13186539  0.07628321     0.83900
C76         C  0.24942157  0.02690087  0.00679943     0.83600
O77         O  0.32128307  0.10881335  0.46193756    -0.77600
C78         C  0.17848835  0.13169861  0.43624754     0.84400
O79         O  0.32190315  0.10941574  0.05037755    -0.77700
C80         C  0.17787599  0.13126084  0.07734665     0.84500
C81         C  0.25015056  0.23665846  0.00670236     0.84800
O82         O  0.24951843  0.21953697  0.03665572    -0.80100
O83         O  0.27960854  0.46960405  0.00671244    -0.77600
C84         C  0.32143865  0.38288056  0.07662280     0.83400
O85         O  0.29703904  0.35993990  0.43380778    -0.78700
O86         O  0.25089020  0.29365395  0.03673419    -0.80200
O87         O  0.17790530  0.40407619  0.05246614    -0.80000
O88         O  0.21977183  0.46969426  0.00651214    -0.78600
Zn89       Zn  0.29274027  0.41554952  0.00677764     1.55700
O90         O  0.20668390  0.35910995  0.08091197    -0.80000
Cd91       Cd  0.20810337  0.41442207  0.00684910     1.59700
Cd92       Cd  0.25161626  0.34924959  0.46419496     1.59600
O93         O  0.17712000  0.40339188  0.46219670    -0.80000
O94         O  0.25159696  0.38240752  0.00679200    -1.90500
Cd95       Cd  0.25152038  0.34884500  0.04942534     1.59900
O96         O  0.20637063  0.35900499  0.43349393    -0.80000
O97         O  0.29687855  0.35898069  0.07947302    -0.78600
C98         C  0.32207767  0.38324674  0.43697159     0.83900
C99         C  0.24970150  0.48667674  0.00666110     0.83600
O100        O  0.32250770  0.40591633  0.05100057    -0.77600
C101        C  0.18082895  0.38162567  0.07841373     0.84400
O102        O  0.32327220  0.40577504  0.46280490    -0.77700
C103        C  0.18006868  0.38094504  0.43642582     0.84500
C104        C  0.25088373  0.27685636  0.00675046     0.84800
O105        O  0.25142393  0.29398319  0.47679611    -0.80100
O106        O  0.00029944  0.28623763  0.46857819    -0.77600
C107        C  0.07141601  0.32582241  0.38180337     0.83400
O108        O  0.42691148  0.30313002  0.35954617    -0.78700
O109        O  0.02926455  0.25665149  0.29338516    -0.80200
O110        O  0.04396878  0.18337058  0.40503820    -0.80000
O111        O  0.99897183  0.22643385  0.47023621    -0.78600
Zn112      Zn  0.00049769  0.29899116  0.41440731     1.55700
O113        O  0.07200371  0.21073320  0.35868382    -0.80000
Cd114      Cd  0.99897075  0.21432617  0.41509366     1.59700
Cd115      Cd  0.45688563  0.25757291  0.34914986     1.59600
O116        O  0.45388947  0.18371592  0.40462365    -0.80000
O117        O  0.99960097  0.25743527  0.38217523    -1.90500
Cd118      Cd  0.04212474  0.25640416  0.34850788     1.59900
O119        O  0.42593145  0.21231369  0.35927184    -0.80000
O120        O  0.07394195  0.30074574  0.35855169    -0.78600
C121        C  0.43078654  0.32860467  0.38214589     0.83900
C122        C  0.99974474  0.25668256  0.48642779     0.83600
O123        O  0.04542481  0.32790849  0.40433885    -0.77600
C124        C  0.06943890  0.18540410  0.38190970     0.84400
O125        O  0.45700747  0.33001179  0.40422757    -0.77700
C126        C  0.42841602  0.18636452  0.38182246     0.84500
C127        C  0.99925755  0.25714707  0.27664275     0.84800
O128        O  0.46934112  0.25768704  0.29382533    -0.80100
C129        C  0.15223575  0.38066373  0.40878993     0.04000
C130        C  0.15201932  0.40759872  0.38222451    -0.12100
C131        C  0.12533500  0.40757798  0.35570383     0.01500
C132        C  0.09892436  0.38066774  0.35560486    -0.10700
C133        C  0.09912155  0.35372298  0.38214916     0.04000
C134        C  0.12576931  0.35367031  0.40881974    -0.10100
H135        H  0.17251562  0.42850047  0.38220039     0.09600
H136        H  0.07829533  0.38069341  0.33494084     0.07100
H137        H  0.12591441  0.33278999  0.42942481     0.07000
O138        O  0.10258492  0.46174300  0.18529049    -0.77600
C139        C  0.02031914  0.00661623  0.25740297     0.83400
O140        O  0.14684801  0.08018254  0.21205526    -0.78700
O141        O  0.10170179  0.05119046  0.33044320    -0.80200
O142        O  0.14804937  0.43331730  0.30234089    -0.80000
O143        O  0.14849569  0.43326324  0.21217081    -0.78600
Zn144      Zn  0.09231004  0.00604458  0.21513171     1.55700
O145        O  0.10208761  0.46086195  0.33050179    -0.80000
Cd146      Cd  0.15819732  0.46405760  0.25707324     1.59700
Cd147      Cd  0.15769095  0.04914459  0.25696003     1.59600
O148        O  0.21331175  0.47681765  0.25700462    -0.80000
O149        O  0.12453792  0.00639317  0.25668933    -1.90500
Cd150      Cd  0.09162069  0.00614115  0.29984152     1.59900
O151        O  0.21304351  0.03673043  0.25653640    -0.80000
O152        O  0.03645325  0.00643762  0.28770730    -0.78600
C153        C  0.12391184  0.07678881  0.18680495     0.83900
C154        C  0.12537282  0.43602313  0.18701415     0.83600
O155        O  0.03821547  0.00634474  0.22788006    -0.77600
C156        C  0.12515474  0.43550103  0.32798519     0.84400
O157        O  0.10202713  0.05035232  0.18505256    -0.77700
C158        C  0.23014258  0.00683166  0.25673007     0.84500
C159        C  0.12450881  0.07679849  0.32794768     0.84800
O160        O  0.14744485  0.07940353  0.30233992    -0.80100
C161        C  0.37615686  0.41032848  0.15697953     0.04000
C162        C  0.34954178  0.41041415  0.13031942    -0.12100
C163        C  0.34964893  0.38366304  0.10380158     0.01500
C164        C  0.37631959  0.35699278  0.10387089    -0.10700
C165        C  0.40290676  0.35706882  0.13047694     0.04000
C166        C  0.40288879  0.38370620  0.15703750    -0.10100
H167        H  0.32871508  0.43097104  0.13039193     0.09600
H168        H  0.37625113  0.33613379  0.08344104     0.07100
H169        H  0.42345652  0.38360208  0.17776079     0.07000
C170        C  0.09569795  0.15695850  0.13105499     0.04000
C171        C  0.12263867  0.15725086  0.10445884    -0.12100
C172        C  0.14977198  0.13102396  0.10493830     0.01500
C173        C  0.14999015  0.10448097  0.13187417    -0.10700
C174        C  0.12305279  0.10414689  0.15843064     0.04000
C175        C  0.09585520  0.13037846  0.15807609    -0.10100
H176        H  0.12267403  0.17797338  0.08367603     0.09600
H177        H  0.17111968  0.08422289  0.13223473     0.07100
H178        H  0.07518441  0.13034531  0.17890612     0.07000
O179        O  0.45426978  0.18604616  0.10853867    -0.77600
C180        C  0.50001164  0.25746997  0.02663403     0.83400
O181        O  0.07201938  0.21080033  0.15427282    -0.78700
O182        O  0.04593540  0.33020875  0.10874262    -0.80200
O183        O  0.42726173  0.30349733  0.15379555    -0.80000
O184        O  0.42520177  0.21324085  0.15396974    -0.78600
Zn185      Zn  0.49910668  0.21509210  0.09864195     1.55700
O186        O  0.45601594  0.33102450  0.10796176    -0.80000
Cd187      Cd  0.45686954  0.25769623  0.16425100     1.59700
Cd188      Cd  0.04203683  0.25641267  0.16424530     1.59600
O189        O  0.46926275  0.25752904  0.21956633    -0.80000
O190        O  0.49965845  0.25665658  0.13087319    -1.90500
Cd191      Cd  0.50076960  0.29980266  0.09798574     1.59900
O192        O  0.02917583  0.25647116  0.21938257    -0.80000
O193        O  0.50082739  0.28771951  0.04282750    -0.78600
C194        C  0.06853065  0.18541670  0.13151856     0.83900
C195        C  0.42808258  0.18806868  0.13084537     0.83600
O196        O  0.49939363  0.22790987  0.04447935    -0.77600
C197        C  0.43029786  0.32899659  0.13080311     0.84400
O198        O  0.04263677  0.18407872  0.10903971    -0.77700
C199        C  0.49920164  0.25705066  0.23643948     0.84500
C200        C  0.07113517  0.32743851  0.13183467     0.84800
O201        O  0.07323020  0.30149817  0.15441936    -0.80100
C202        C  0.40382385  0.35723026  0.38281958     0.04000
C203        C  0.40352824  0.38361020  0.35564310    -0.12100
C204        C  0.37674276  0.41023712  0.35561365     0.01500
C205        C  0.35028990  0.41049746  0.38269376    -0.10700
C206        C  0.35057848  0.38404271  0.40975668     0.04000
C207        C  0.37735540  0.35743627  0.40987099    -0.10100
H208        H  0.42383973  0.38323280  0.33446395     0.09600
H209        H  0.32933241  0.43093281  0.38246312     0.07100
H210        H  0.37729681  0.33669158  0.43063249     0.07000
C211        C  0.34829582  0.13186357  0.60344981     0.04000
C212        C  0.34859824  0.10517525  0.63028048    -0.12100
C213        C  0.37493714  0.10589814  0.65716561     0.01500
C214        C  0.40095929  0.13317535  0.65728090    -0.10700
C215        C  0.40069277  0.15985071  0.63047899     0.04000
C216        C  0.37435601  0.15926518  0.60351549    -0.10100
H217        H  0.32829400  0.08409115  0.63038608     0.09600
H218        H  0.42135014  0.13364638  0.67817554     0.07100
H219        H  0.37402515  0.18008271  0.58284868     0.07000
C220        C  0.09897977  0.35516284  0.63227279     0.04000
C221        C  0.12623104  0.35493877  0.60604895    -0.12100
C222        C  0.15300060  0.38149975  0.60629213    -0.00300
C223        C  0.15259751  0.40829108  0.63275013    -0.10700
C224        C  0.12525363  0.40856665  0.65895543     0.04000
C225        C  0.09840201  0.38199363  0.65873403    -0.10100
H226        H  0.12653018  0.33424720  0.58545017     0.09600
H227        H  0.17342926  0.42885084  0.63291418     0.07100
H228        H  0.07729551  0.38209006  0.67911559     0.07000
C229        C  0.12424925  0.10450585  0.85562923     0.04000
C230        C  0.15101095  0.10477288  0.88209299    -0.12100
C231        C  0.15076471  0.13151193  0.90858953     0.01500
C232        C  0.12382568  0.15791903  0.90867521    -0.10700
C233        C  0.09712246  0.15758693  0.88215740     0.04000
C234        C  0.09727945  0.13089838  0.85562504    -0.10100
H235        H  0.17191225  0.08428583  0.88206956     0.09600
H236        H  0.12368848  0.17866248  0.92921883     0.07100
H237        H  0.07659024  0.13073196  0.83502644     0.07000
O238        O  0.46217689  0.00739819  0.78595881    -0.77600
C239        C  0.37475772  0.07767920  0.82657879     0.83400
O240        O  0.35342365  0.43367433  0.80147723    -0.78700
O241        O  0.28714740  0.03697792  0.75636063    -0.80200
O242        O  0.39858503  0.05315904  0.68303734    -0.80000
O243        O  0.46405445  0.00751641  0.72612396    -0.78600
Zn244      Zn  0.40797461  0.00784381  0.79846034     1.55700
O245        O  0.35222212  0.08045618  0.71075219    -0.80000
Cd246      Cd  0.40895496  0.00798021  0.71377682     1.59700
Cd247      Cd  0.34282943  0.46467506  0.75638968     1.59600
O248        O  0.39873836  0.46332795  0.68273296    -0.80000
O249        O  0.37588493  0.00752261  0.75679600    -1.90500
Cd250      Cd  0.34221447  0.04985214  0.75625553     1.59900
O251        O  0.35313190  0.43475542  0.71070749    -0.80000
O252        O  0.35173882  0.08056268  0.80132686    -0.78600
C253        C  0.37598297  0.43738841  0.82703018     0.83900
C254        C  0.48012904  0.00720399  0.75646118     0.83600
O255        O  0.39760260  0.05202522  0.82823171    -0.77600
C256        C  0.37524797  0.07828667  0.68520967     0.84400
O257        O  0.39780013  0.46387024  0.82879315    -0.77700
C258        C  0.37592539  0.43771401  0.68499140     0.84500
C259        C  0.27034177  0.00695259  0.75662748     0.84800
O260        O  0.28746227  0.47706534  0.75679651    -0.80100
C261        C  0.37479619  0.10490096  0.85484818     0.04000
C262        C  0.34793917  0.10446810  0.88157868    -0.12100
C263        C  0.34763540  0.13098829  0.90832580     0.01500
C264        C  0.37406172  0.15792510  0.90833188    -0.10700
C265        C  0.40083355  0.15835790  0.88160562     0.04000
C266        C  0.40126507  0.13183864  0.85485675    -0.10100
H267        H  0.32728103  0.08373580  0.88144573     0.09600
H268        H  0.37372989  0.17854212  0.92900388     0.07100
H269        H  0.42201098  0.13222862  0.83410704     0.07000
O270        O  0.27908677  0.04443627  0.50686845    -0.77600
C271        C  0.31936268  0.13122171  0.93580879     0.83400
O272        O  0.29420097  0.15435066  0.57966762    -0.78700
O273        O  0.25012939  0.21985659  0.97672366    -0.80200
O274        O  0.17627590  0.10860309  0.96171831    -0.80000
O275        O  0.21923869  0.04340787  0.50683491    -0.78600
Zn276      Zn  0.29157605  0.09876377  0.50657498     1.55700
O277        O  0.20381494  0.15483817  0.93378473    -0.80000
Cd278      Cd  0.20678495  0.09842655  0.50682049     1.59700
Cd279      Cd  0.24900489  0.16428989  0.54927082     1.59600
O280        O  0.17566289  0.10859043  0.55175654    -0.80000
O281        O  0.24980872  0.13111816  0.50669203    -1.90500
Cd282      Cd  0.24924041  0.16467120  0.96406526     1.59900
O283        O  0.20352296  0.15398164  0.57999111    -0.80000
O284        O  0.29402104  0.15423311  0.93282603    -0.78600
C285        C  0.31996333  0.13186540  0.57628318     0.83900
C286        C  0.24942163  0.02690083  0.50679952     0.83600
O287        O  0.32128307  0.10881335  0.96193756    -0.77600
C288        C  0.17848831  0.13169862  0.93624754     0.84400
O289        O  0.32190315  0.10941574  0.55037753    -0.77700
C290        C  0.17787591  0.13126083  0.57734661     0.84500
C291        C  0.25015056  0.23665846  0.50670240     0.84800
O292        O  0.24951841  0.21953693  0.53665575    -0.80100
O293        O  0.27960855  0.46960404  0.50671241    -0.77600
C294        C  0.32143863  0.38288063  0.57662279     0.83400
O295        O  0.29703904  0.35993985  0.93380784    -0.78700
O296        O  0.25089018  0.29365394  0.53673423    -0.80200
O297        O  0.17790529  0.40407622  0.55246611    -0.80000
O298        O  0.21977183  0.46969437  0.50651212    -0.78600
Zn299      Zn  0.29274026  0.41554949  0.50677760     1.55700
O300        O  0.20668389  0.35910994  0.58091193    -0.80000
Cd301      Cd  0.20810337  0.41442220  0.50684908     1.59700
Cd302      Cd  0.25161627  0.34924956  0.96419495     1.59600
O303        O  0.17711995  0.40339175  0.96219671    -0.80000
O304        O  0.25159689  0.38240761  0.50679201    -1.90500
Cd305      Cd  0.25152037  0.34884498  0.54942532     1.59900
O306        O  0.20637069  0.35900502  0.93349394    -0.80000
O307        O  0.29687856  0.35898072  0.57947302    -0.78600
C308        C  0.32207770  0.38324673  0.93697166     0.83900
C309        C  0.24970153  0.48667677  0.50666112     0.83600
O310        O  0.32250766  0.40591635  0.55100052    -0.77600
C311        C  0.18082893  0.38162566  0.57841369     0.84400
O312        O  0.32327218  0.40577509  0.96280492    -0.77700
C313        C  0.18006868  0.38094500  0.93642582     0.84500
C314        C  0.25088373  0.27685635  0.50675055     0.84800
O315        O  0.25142391  0.29398316  0.97679597    -0.80100
O316        O  0.00029941  0.28623756  0.96857826    -0.77600
C317        C  0.07141605  0.32582237  0.88180330     0.83400
O318        O  0.42691142  0.30313010  0.85954610    -0.78700
O319        O  0.02926459  0.25665147  0.79338518    -0.80200
O320        O  0.04396875  0.18337055  0.90503817    -0.80000
O321        O  0.99897183  0.22643379  0.97023615    -0.78600
Zn322      Zn  0.00049769  0.29899114  0.91440731     1.55700
O323        O  0.07200368  0.21073318  0.85868380    -0.80000
Cd324      Cd  0.99897071  0.21432615  0.91509362     1.59700
Cd325      Cd  0.45688564  0.25757305  0.84914984     1.59600
O326        O  0.45388939  0.18371595  0.90462368    -0.80000
O327        O  0.99960094  0.25743530  0.88217521    -1.90500
Cd328      Cd  0.04212472  0.25640414  0.84850786     1.59900
O329        O  0.42593158  0.21231376  0.85927189    -0.80000
O330        O  0.07394203  0.30074571  0.85855161    -0.78600
C331        C  0.43078648  0.32860463  0.88214595     0.83900
C332        C  0.99974474  0.25668248  0.98642779     0.83600
O333        O  0.04542489  0.32790840  0.90433885    -0.77600
C334        C  0.06943886  0.18540408  0.88190966     0.84400
O335        O  0.45700748  0.33001177  0.90422754    -0.77700
C336        C  0.42841598  0.18636457  0.88182250     0.84500
C337        C  0.99925763  0.25714704  0.77664275     0.84800
O338        O  0.46934115  0.25768709  0.79382536    -0.80100
C339        C  0.15223569  0.38066371  0.90879004     0.04000
C340        C  0.15201933  0.40759871  0.88222451    -0.12100
C341        C  0.12533500  0.40757790  0.85570383     0.01500
C342        C  0.09892436  0.38066768  0.85560496    -0.10700
C343        C  0.09912165  0.35372286  0.88214921     0.04000
C344        C  0.12576935  0.35367028  0.90881976    -0.10100
H345        H  0.17251552  0.42850034  0.88220036     0.09600
H346        H  0.07829537  0.38069310  0.83494089     0.07100
H347        H  0.12591451  0.33278942  0.92942516     0.07000
O348        O  0.10258496  0.46174295  0.68529065    -0.77600
C349        C  0.02031911  0.00661624  0.75740296     0.83400
O350        O  0.14684800  0.08018251  0.71205523    -0.78700
O351        O  0.10170178  0.05119045  0.83044319    -0.80200
O352        O  0.14804934  0.43331729  0.80234088    -0.80000
O353        O  0.14849576  0.43326325  0.71217076    -0.78600
Zn354      Zn  0.09231002  0.00604454  0.71513180     1.55700
O355        O  0.10208758  0.46086196  0.83050176    -0.80000
Cd356      Cd  0.15819733  0.46405758  0.75707321     1.59700
Cd357      Cd  0.15769094  0.04914457  0.75696002     1.59600
O358        O  0.21331180  0.47681764  0.75700461    -0.80000
O359        O  0.12453795  0.00639314  0.75668941    -1.90500
Cd360      Cd  0.09162066  0.00614114  0.79984150     1.59900
O361        O  0.21304348  0.03673045  0.75653645    -0.80000
O362        O  0.03645322  0.00643760  0.78770729    -0.78600
C363        C  0.12391182  0.07678876  0.68680494     0.83900
C364        C  0.12537290  0.43602314  0.68701414     0.83600
O365        O  0.03821545  0.00634471  0.72788007    -0.77600
C366        C  0.12515471  0.43550102  0.82798518     0.84400
O367        O  0.10202710  0.05035227  0.68505263    -0.77700
C368        C  0.23014259  0.00683169  0.75673004     0.84500
C369        C  0.12450880  0.07679848  0.82794766     0.84800
O370        O  0.14744484  0.07940351  0.80233990    -0.80100
C371        C  0.37615682  0.41032850  0.65697956     0.04000
C372        C  0.34954172  0.41041420  0.63031944    -0.12100
C373        C  0.34964890  0.38366312  0.60380163     0.01500
C374        C  0.37631961  0.35699284  0.60387081    -0.10700
C375        C  0.40290676  0.35706889  0.63047695     0.04000
C376        C  0.40288877  0.38370621  0.65703755    -0.10100
H377        H  0.32871510  0.43097105  0.63039185     0.09600
H378        H  0.37625127  0.33613446  0.58344115     0.07100
H379        H  0.42345648  0.38360203  0.67776086     0.07000
C380        C  0.09569795  0.15695846  0.63105494     0.04000
C381        C  0.12263868  0.15725081  0.60445882    -0.12100
C382        C  0.14977198  0.13102393  0.60493830     0.01500
C383        C  0.14999015  0.10448093  0.63187416    -0.10700
C384        C  0.12305276  0.10414683  0.65843061     0.04000
C385        C  0.09585519  0.13037842  0.65807605    -0.10100
H386        H  0.12267409  0.17797333  0.58367599     0.09600
H387        H  0.17111969  0.08422285  0.63223473     0.07100
H388        H  0.07518441  0.13034529  0.67890607     0.07000
O389        O  0.45426978  0.18604614  0.60853864    -0.77600
C390        C  0.50001175  0.25747005  0.52663405     0.83400
O391        O  0.07201937  0.21080029  0.65427279    -0.78700
O392        O  0.04593535  0.33020874  0.60874259    -0.80200
O393        O  0.42726169  0.30349733  0.65379551    -0.80000
O394        O  0.42520177  0.21324084  0.65396972    -0.78600
Zn395      Zn  0.49910667  0.21509207  0.59864195     1.55700
O396        O  0.45601589  0.33102448  0.60796171    -0.80000
Cd397      Cd  0.45686952  0.25769620  0.66425097     1.59700
Cd398      Cd  0.04203682  0.25641266  0.66424527     1.59600
O399        O  0.46926273  0.25752900  0.71956626    -0.80000
O400        O  0.49965843  0.25665654  0.63087317    -1.90500
Cd401      Cd  0.50076959  0.29980264  0.59798572     1.59900
O402        O  0.02917582  0.25647112  0.71938257    -0.80000
O403        O  0.50082752  0.28771964  0.54282748    -0.78600
C404        C  0.06853064  0.18541667  0.63151852     0.83900
C405        C  0.42808258  0.18806867  0.63084535     0.83600
O406        O  0.49939357  0.22790989  0.54447935    -0.77600
C407        C  0.43029781  0.32899659  0.63080306     0.84400
O408        O  0.04263676  0.18407870  0.60903967    -0.77700
C409        C  0.49920160  0.25705062  0.73643947     0.84500
C410        C  0.07113513  0.32743851  0.63183464     0.84800
O411        O  0.07323019  0.30149818  0.65441933    -0.80100
C412        C  0.40382388  0.35723027  0.88281966     0.04000
C413        C  0.40352818  0.38361017  0.85564313    -0.12100
C414        C  0.37674278  0.41023720  0.85561374     0.01500
C415        C  0.35028990  0.41049749  0.88269378    -0.10700
C416        C  0.35057859  0.38404279  0.90975677     0.04000
C417        C  0.37735547  0.35743630  0.90987104    -0.10100
H418        H  0.42383951  0.38323272  0.83446394     0.09600
H419        H  0.32933249  0.43093298  0.88246328     0.07100
H420        H  0.37729721  0.33669197  0.93063294     0.07000
C421        C  0.34829578  0.63186349  0.10344988     0.04000
C422        C  0.34859820  0.60517518  0.13028056    -0.12100
C423        C  0.37493705  0.60589812  0.15716569     0.01500
C424        C  0.40095928  0.63317535  0.15728089    -0.10700
C425        C  0.40069271  0.65985071  0.13047898     0.04000
C426        C  0.37435597  0.65926522  0.10351542    -0.10100
H427        H  0.32829393  0.58409114  0.13038624     0.09600
H428        H  0.42134962  0.63364673  0.17817541     0.07100
H429        H  0.37402530  0.68008208  0.08284890     0.07000
C430        C  0.09897982  0.85516301  0.13227276     0.04000
C431        C  0.12623111  0.85493886  0.10604897    -0.12100
C432        C  0.15300068  0.88149983  0.10629218    -0.00300
C433        C  0.15259750  0.90829106  0.13275018    -0.10700
C434        C  0.12525373  0.90856671  0.15895547     0.04000
C435        C  0.09840208  0.88199372  0.15873403    -0.10100
H436        H  0.12653020  0.83424737  0.08545020     0.09600
H437        H  0.17342993  0.92885110  0.13291442     0.07100
H438        H  0.07729553  0.88209016  0.17911553     0.07000
C439        C  0.12424926  0.60450579  0.35562927     0.04000
C440        C  0.15101087  0.60477285  0.38209304    -0.12100
C441        C  0.15076475  0.63151187  0.40858953     0.01500
C442        C  0.12382571  0.65791896  0.40867522    -0.10700
C443        C  0.09712248  0.65758691  0.38215743     0.04000
C444        C  0.09727948  0.63089838  0.35562506    -0.10100
H445        H  0.17191236  0.58428521  0.38206975     0.09600
H446        H  0.12368860  0.67866250  0.42921886     0.07100
H447        H  0.07659029  0.63073201  0.33502643     0.07000
O448        O  0.46217687  0.50739810  0.28595884    -0.77600
C449        C  0.37475767  0.57767920  0.32657878     0.83400
O450        O  0.35342369  0.93367430  0.30147720    -0.78700
O451        O  0.28714739  0.53697773  0.25636058    -0.80200
O452        O  0.39858503  0.55315909  0.18303737    -0.80000
O453        O  0.46405443  0.50751650  0.22612400    -0.78600
Zn454      Zn  0.40797458  0.50784383  0.29846038     1.55700
O455        O  0.35222211  0.58045615  0.21075227    -0.80000
Cd456      Cd  0.40895496  0.50798024  0.21377682     1.59700
Cd457      Cd  0.34282938  0.96467507  0.25638968     1.59600
O458        O  0.39873826  0.96332800  0.18273294    -0.80000
O459        O  0.37588499  0.50752254  0.25679602    -1.90500
Cd460      Cd  0.34221445  0.54985202  0.25625553     1.59900
O461        O  0.35313184  0.93475548  0.21070751    -0.80000
O462        O  0.35173876  0.58056260  0.30132684    -0.78600
C463        C  0.37598297  0.93738843  0.32703014     0.83900
C464        C  0.48012901  0.50720391  0.25646121     0.83600
O465        O  0.39760260  0.55202527  0.32823172    -0.77600
C466        C  0.37524789  0.57828664  0.18520970     0.84400
O467        O  0.39780010  0.96387030  0.32879309    -0.77700
C468        C  0.37592536  0.93771400  0.18499142     0.84500
C469        C  0.27034172  0.50695245  0.25662727     0.84800
O470        O  0.28746221  0.97706536  0.25679638    -0.80100
C471        C  0.37479606  0.60490097  0.35484824     0.04000
C472        C  0.34793911  0.60446812  0.38157869    -0.12100
C473        C  0.34763540  0.63098837  0.40832580     0.01500
C474        C  0.37406178  0.65792516  0.40833191    -0.10700
C475        C  0.40083355  0.65835794  0.38160569     0.04000
C476        C  0.40126504  0.63183861  0.35485683    -0.10100
H477        H  0.32728097  0.58373583  0.38144577     0.09600
H478        H  0.37372991  0.67854227  0.42900396     0.07100
H479        H  0.42201035  0.63222862  0.33410734     0.07000
O480        O  0.27908678  0.54443632  0.00686835    -0.77600
C481        C  0.31936273  0.63122175  0.43580884     0.83400
O482        O  0.29420094  0.65435069  0.07966764    -0.78700
O483        O  0.25012943  0.71985665  0.47672367    -0.80200
O484        O  0.17627587  0.60860306  0.46171835    -0.80000
O485        O  0.21923869  0.54340788  0.00683499    -0.78600
Zn486      Zn  0.29157604  0.59876381  0.00657497     1.55700
O487        O  0.20381489  0.65483815  0.43378474    -0.80000
Cd488      Cd  0.20678492  0.59842657  0.00682051     1.59700
Cd489      Cd  0.24900487  0.66428993  0.04927084     1.59600
O490        O  0.17566287  0.60859048  0.05175657    -0.80000
O491        O  0.24980869  0.63111819  0.00669203    -1.90500
Cd492      Cd  0.24924038  0.66467122  0.46406527     1.59900
O493        O  0.20352294  0.65398168  0.07999113    -0.80000
O494        O  0.29402104  0.65423306  0.43282606    -0.78600
C495        C  0.31996329  0.63186539  0.07628322     0.83900
C496        C  0.24942164  0.52690086  0.00679943     0.83600
O497        O  0.32128308  0.60881340  0.46193761    -0.77600
C498        C  0.17848829  0.63169858  0.43624756     0.84400
O499        O  0.32190310  0.60941575  0.05037755    -0.77700
C500        C  0.17787589  0.63126087  0.07734664     0.84500
C501        C  0.25015051  0.73665847  0.00670240     0.84800
O502        O  0.24951839  0.71953695  0.03665575    -0.80100
O503        O  0.27960850  0.96960406  0.00671244    -0.77600
C504        C  0.32143872  0.88288049  0.07662273     0.83400
O505        O  0.29703905  0.85993986  0.43380784    -0.78700
O506        O  0.25089014  0.79365395  0.03673421    -0.80200
O507        O  0.17790525  0.90407619  0.05246612    -0.80000
O508        O  0.21977179  0.96969424  0.00651214    -0.78600
Zn509      Zn  0.29274023  0.91554951  0.00677763     1.55700
O510        O  0.20668389  0.85910997  0.08091196    -0.80000
Cd511      Cd  0.20810334  0.91442208  0.00684910     1.59700
Cd512      Cd  0.25161624  0.84924958  0.46419497     1.59600
O513        O  0.17711994  0.90339180  0.46219666    -0.80000
O514        O  0.25159692  0.88240753  0.00679200    -1.90500
Cd515      Cd  0.25152036  0.84884500  0.04942533     1.59900
O516        O  0.20637063  0.85900498  0.43349391    -0.80000
O517        O  0.29687860  0.85898073  0.07947296    -0.78600
C518        C  0.32207772  0.88324671  0.43697165     0.83900
C519        C  0.24970145  0.98667674  0.00666111     0.83600
O520        O  0.32250759  0.90591625  0.05100053    -0.77600
C521        C  0.18082894  0.88162567  0.07841372     0.84400
O522        O  0.32327221  0.90577511  0.46280487    -0.77700
C523        C  0.18006866  0.88094503  0.43642575     0.84500
C524        C  0.25088368  0.77685636  0.00675054     0.84800
O525        O  0.25142391  0.79398320  0.47679612    -0.80100
O526        O  0.00029939  0.78623761  0.46857823    -0.77600
C527        C  0.07141602  0.82582247  0.38180324     0.83400
O528        O  0.42691147  0.80312998  0.35954616    -0.78700
O529        O  0.02926448  0.75665136  0.29338513    -0.80200
O530        O  0.04396875  0.68337058  0.40503820    -0.80000
O531        O  0.99897178  0.72643384  0.47023617    -0.78600
Zn532      Zn  0.00049767  0.79899115  0.41440731     1.55700
O533        O  0.07200369  0.71073322  0.35868385    -0.80000
Cd534      Cd  0.99897071  0.71432618  0.41509365     1.59700
Cd535      Cd  0.45688563  0.75757290  0.34914986     1.59600
O536        O  0.45388946  0.68371587  0.40462361    -0.80000
O537        O  0.99960092  0.75743528  0.38217524    -1.90500
Cd538      Cd  0.04212469  0.75640416  0.34850787     1.59900
O539        O  0.42593145  0.71231372  0.35927191    -0.80000
O540        O  0.07394195  0.80074584  0.35855159    -0.78600
C541        C  0.43078651  0.82860466  0.38214587     0.83900
C542        C  0.99974469  0.75668253  0.48642778     0.83600
O543        O  0.04542490  0.82790836  0.40433883    -0.77600
C544        C  0.06943888  0.68540411  0.38190971     0.84400
O545        O  0.45700743  0.83001177  0.40422755    -0.77700
C546        C  0.42841602  0.68636449  0.38182244     0.84500
C547        C  0.99925753  0.75714696  0.27664273     0.84800
O548        O  0.46934110  0.75768710  0.29382534    -0.80100
C549        C  0.15223571  0.88066380  0.40878984     0.04000
C550        C  0.15201929  0.90759878  0.38222442    -0.12100
C551        C  0.12533495  0.90757804  0.35570376     0.01500
C552        C  0.09892433  0.88066780  0.35560478    -0.10700
C553        C  0.09912164  0.85372299  0.38214896     0.04000
C554        C  0.12576934  0.85367025  0.40881966    -0.10100
H555        H  0.17251547  0.92850051  0.38220037     0.09600
H556        H  0.07829523  0.88069348  0.33494080     0.07100
H557        H  0.12591462  0.83279021  0.42942411     0.07000
O558        O  0.10258498  0.96174294  0.18529057    -0.77600
C559        C  0.02031912  0.50661624  0.25740294     0.83400
O560        O  0.14684798  0.58018247  0.21205523    -0.78700
O561        O  0.10170175  0.55119047  0.33044319    -0.80200
O562        O  0.14804939  0.93331733  0.30234089    -0.80000
O563        O  0.14849579  0.93326331  0.21217077    -0.78600
Zn564      Zn  0.09231001  0.50604459  0.21513170     1.55700
O565        O  0.10208759  0.96086196  0.33050178    -0.80000
Cd566      Cd  0.15819744  0.96405761  0.25707322     1.59700
Cd567      Cd  0.15769091  0.54914459  0.25696003     1.59600
O568        O  0.21331189  0.97681758  0.25700456    -0.80000
O569        O  0.12453782  0.50639320  0.25668933    -1.90500
Cd570      Cd  0.09162064  0.50614116  0.29984153     1.59900
O571        O  0.21304346  0.53673050  0.25653649    -0.80000
O572        O  0.03645316  0.50643762  0.28770730    -0.78600
C573        C  0.12391190  0.57678877  0.18680490     0.83900
C574        C  0.12537293  0.93602315  0.18701414     0.83600
O575        O  0.03821548  0.50634476  0.22788003    -0.77600
C576        C  0.12515471  0.93550105  0.32798516     0.84400
O577        O  0.10202717  0.55035237  0.18505260    -0.77700
C578        C  0.23014250  0.50683171  0.25672999     0.84500
C579        C  0.12450876  0.57679850  0.32794765     0.84800
O580        O  0.14744480  0.57940354  0.30233990    -0.80100
C581        C  0.37615681  0.91032849  0.15697952     0.04000
C582        C  0.34954175  0.91041416  0.13031940    -0.12100
C583        C  0.34964890  0.88366296  0.10380166     0.01500
C584        C  0.37631962  0.85699276  0.10387089    -0.10700
C585        C  0.40290674  0.85706879  0.13047696     0.04000
C586        C  0.40288873  0.88370620  0.15703748    -0.10100
H587        H  0.32871500  0.93097101  0.13039187     0.09600
H588        H  0.37625113  0.83613382  0.08344111     0.07100
H589        H  0.42345646  0.88360209  0.17776078     0.07000
C590        C  0.09569789  0.65695839  0.13105493     0.04000
C591        C  0.12263866  0.65725082  0.10445884    -0.12100
C592        C  0.14977196  0.63102396  0.10493834     0.01500
C593        C  0.14999014  0.60448095  0.13187418    -0.10700
C594        C  0.12305278  0.60414683  0.15843062     0.04000
C595        C  0.09585518  0.63037839  0.15807608    -0.10100
H596        H  0.12267406  0.67797335  0.08367603     0.09600
H597        H  0.17111969  0.58422288  0.13223475     0.07100
H598        H  0.07518440  0.63034528  0.17890612     0.07000
O599        O  0.45426976  0.68604615  0.10853867    -0.77600
C600        C  0.50001171  0.75746990  0.02663405     0.83400
O601        O  0.07201937  0.71080026  0.15427285    -0.78700
O602        O  0.04593539  0.83020875  0.10874271    -0.80200
O603        O  0.42726180  0.80349731  0.15379556    -0.80000
O604        O  0.42520184  0.71324090  0.15396975    -0.78600
Zn605      Zn  0.49910667  0.71509209  0.09864194     1.55700
O606        O  0.45601590  0.83102452  0.10796174    -0.80000
Cd607      Cd  0.45686965  0.75769624  0.16425099     1.59700
Cd608      Cd  0.04203694  0.75641269  0.16424529     1.59600
O609        O  0.46926275  0.75752905  0.21956634    -0.80000
O610        O  0.49965854  0.75665659  0.13087312    -1.90500
Cd611      Cd  0.50076959  0.79980268  0.09798573     1.59900
O612        O  0.02917588  0.75647118  0.21938254    -0.80000
O613        O  0.50082748  0.78771950  0.04282751    -0.78600
C614        C  0.06853060  0.68541662  0.13151856     0.83900
C615        C  0.42808256  0.68806873  0.13084536     0.83600
O616        O  0.49939353  0.72790975  0.04447932    -0.77600
C617        C  0.43029785  0.82899657  0.13080311     0.84400
O618        O  0.04263675  0.68407870  0.10903965    -0.77700
C619        C  0.49920162  0.75705064  0.23643950     0.84500
C620        C  0.07113524  0.82743853  0.13183467     0.84800
O621        O  0.07323031  0.80149816  0.15441931    -0.80100
C622        C  0.40382385  0.85723031  0.38281958     0.04000
C623        C  0.40352822  0.88361016  0.35564303    -0.12100
C624        C  0.37674279  0.91023710  0.35561361     0.01500
C625        C  0.35028994  0.91049740  0.38269374    -0.10700
C626        C  0.35057855  0.88404274  0.40975676     0.04000
C627        C  0.37735540  0.85743629  0.40987101    -0.10100
H628        H  0.42383977  0.88323269  0.33446388     0.09600
H629        H  0.32933243  0.93093270  0.38246307     0.07100
H630        H  0.37729706  0.83669184  0.43063265     0.07000
C631        C  0.34829576  0.63186346  0.60344987     0.04000
C632        C  0.34859816  0.60517517  0.63028055    -0.12100
C633        C  0.37493706  0.60589809  0.65716560     0.01500
C634        C  0.40095926  0.63317536  0.65728088    -0.10700
C635        C  0.40069271  0.65985069  0.63047896     0.04000
C636        C  0.37435596  0.65926518  0.60351542    -0.10100
H637        H  0.32829393  0.58409108  0.63038624     0.09600
H638        H  0.42134956  0.63364670  0.67817532     0.07100
H639        H  0.37402528  0.68008203  0.58284888     0.07000
C640        C  0.09897988  0.85516291  0.63227269     0.04000
C641        C  0.12623109  0.85493882  0.60604886    -0.12100
C642        C  0.15300072  0.88149971  0.60629216    -0.00300
C643        C  0.15259755  0.90829104  0.63275013    -0.10700
C644        C  0.12525376  0.90856666  0.65895539     0.04000
C645        C  0.09840205  0.88199368  0.65873402    -0.10100
H646        H  0.12653019  0.83424730  0.58545003     0.09600
H647        H  0.17342944  0.92885084  0.63291427     0.07100
H648        H  0.07729625  0.88208998  0.67911530     0.07000
C649        C  0.12424925  0.60450574  0.85562927     0.04000
C650        C  0.15101092  0.60477287  0.88209300    -0.12100
C651        C  0.15076474  0.63151182  0.90858954     0.01500
C652        C  0.12382575  0.65791895  0.90867517    -0.10700
C653        C  0.09712253  0.65758691  0.88215735     0.04000
C654        C  0.09727951  0.63089837  0.85562500    -0.10100
H655        H  0.17191238  0.58428520  0.88206980     0.09600
H656        H  0.12368855  0.67866240  0.92921875     0.07100
H657        H  0.07659023  0.63073192  0.83502632     0.07000
O658        O  0.46217685  0.50739821  0.78595880    -0.77600
C659        C  0.37475766  0.57767921  0.82657879     0.83400
O660        O  0.35342360  0.93367434  0.80147724    -0.78700
O661        O  0.28714739  0.53697788  0.75636050    -0.80200
O662        O  0.39858505  0.55315910  0.68303738    -0.80000
O663        O  0.46405456  0.50751642  0.72612396    -0.78600
Zn664      Zn  0.40797458  0.50784382  0.79846034     1.55700
O665        O  0.35222211  0.58045620  0.71075225    -0.80000
Cd666      Cd  0.40895507  0.50798022  0.71377681     1.59700
Cd667      Cd  0.34282939  0.96467506  0.75638968     1.59600
O668        O  0.39873827  0.96332795  0.68273293    -0.80000
O669        O  0.37588500  0.50752263  0.75679594    -1.90500
Cd670      Cd  0.34221445  0.54985214  0.75625551     1.59900
O671        O  0.35313185  0.93475542  0.71070747    -0.80000
O672        O  0.35173876  0.58056269  0.80132686    -0.78600
C673        C  0.37598292  0.93738842  0.82703019     0.83900
C674        C  0.48012905  0.50720401  0.75646120     0.83600
O675        O  0.39760255  0.55202524  0.82823171    -0.77600
C676        C  0.37524789  0.57828664  0.68520966     0.84400
O677        O  0.39780011  0.96387024  0.82879315    -0.77700
C678        C  0.37592533  0.93771399  0.68499136     0.84500
C679        C  0.27034178  0.50695254  0.75662736     0.84800
O680        O  0.28746217  0.97706537  0.75679646    -0.80100
C681        C  0.37479609  0.60490097  0.85484822     0.04000
C682        C  0.34793912  0.60446816  0.88157869    -0.12100
C683        C  0.34763542  0.63098835  0.90832582     0.01500
C684        C  0.37406176  0.65792513  0.90833192    -0.10700
C685        C  0.40083358  0.65835782  0.88160572     0.04000
C686        C  0.40126502  0.63183861  0.85485676    -0.10100
H687        H  0.32728098  0.58373591  0.88144574     0.09600
H688        H  0.37373017  0.67854196  0.92900410     0.07100
H689        H  0.42201038  0.63222865  0.83410724     0.07000
O690        O  0.27908673  0.54443628  0.50686844    -0.77600
C691        C  0.31936275  0.63122176  0.93580884     0.83400
O692        O  0.29420094  0.65435066  0.57966764    -0.78700
O693        O  0.25012935  0.71985664  0.97672369    -0.80200
O694        O  0.17627588  0.60860308  0.96171834    -0.80000
O695        O  0.21923864  0.54340788  0.50683491    -0.78600
Zn696      Zn  0.29157605  0.59876378  0.50657497     1.55700
O697        O  0.20381489  0.65483817  0.93378472    -0.80000
Cd698      Cd  0.20678494  0.59842654  0.50682050     1.59700
Cd699      Cd  0.24900487  0.66428991  0.54927082     1.59600
O700        O  0.17566289  0.60859040  0.55175660    -0.80000
O701        O  0.24980859  0.63111816  0.50669202    -1.90500
Cd702      Cd  0.24924037  0.66467121  0.96406526     1.59900
O703        O  0.20352295  0.65398174  0.57999111    -0.80000
O704        O  0.29402105  0.65423304  0.93282603    -0.78600
C705        C  0.31996327  0.63186536  0.57628322     0.83900
C706        C  0.24942158  0.52690085  0.50679952     0.83600
O707        O  0.32128309  0.60881341  0.96193761    -0.77600
C708        C  0.17848830  0.63169859  0.93624755     0.84400
O709        O  0.32190310  0.60941574  0.55037754    -0.77700
C710        C  0.17787594  0.63126084  0.57734665     0.84500
C711        C  0.25015043  0.73665847  0.50670240     0.84800
O712        O  0.24951845  0.71953694  0.53665575    -0.80100
O713        O  0.27960852  0.96960400  0.50671242    -0.77600
C714        C  0.32143867  0.88288055  0.57662274     0.83400
O715        O  0.29703903  0.85993984  0.93380782    -0.78700
O716        O  0.25089016  0.79365395  0.53673424    -0.80200
O717        O  0.17790528  0.90407610  0.55246606    -0.80000
O718        O  0.21977180  0.96969426  0.50651212    -0.78600
Zn719      Zn  0.29274025  0.91554949  0.50677761     1.55700
O720        O  0.20668390  0.85910997  0.58091198    -0.80000
Cd721      Cd  0.20810333  0.91442207  0.50684907     1.59700
Cd722      Cd  0.25161624  0.84924956  0.96419496     1.59600
O723        O  0.17711995  0.90339180  0.96219666    -0.80000
O724        O  0.25159691  0.88240753  0.50679201    -1.90500
Cd725      Cd  0.25152033  0.84884499  0.54942532     1.59900
O726        O  0.20637069  0.85900494  0.93349393    -0.80000
O727        O  0.29687852  0.85898075  0.57947298    -0.78600
C728        C  0.32207770  0.88324671  0.93697168     0.83900
C729        C  0.24970148  0.98667671  0.50666112     0.83600
O730        O  0.32250768  0.90591629  0.55100050    -0.77600
C731        C  0.18082898  0.88162566  0.57841373     0.84400
O732        O  0.32327215  0.90577509  0.96280491    -0.77700
C733        C  0.18006872  0.88094502  0.93642578     0.84500
C734        C  0.25088374  0.77685636  0.50675055     0.84800
O735        O  0.25142387  0.79398320  0.97679611    -0.80100
O736        O  0.00029932  0.78623758  0.96857826    -0.77600
C737        C  0.07141604  0.82582236  0.88180330     0.83400
O738        O  0.42691144  0.80313001  0.85954611    -0.78700
O739        O  0.02926454  0.75665148  0.79338518    -0.80200
O740        O  0.04396874  0.68337060  0.90503818    -0.80000
O741        O  0.99897191  0.72643380  0.97023615    -0.78600
Zn742      Zn  0.00049765  0.79899116  0.91440731     1.55700
O743        O  0.07200370  0.71073315  0.85868374    -0.80000
Cd744      Cd  0.99897069  0.71432616  0.91509363     1.59700
Cd745      Cd  0.45688560  0.75757292  0.84914985     1.59600
O746        O  0.45388940  0.68371590  0.90462364    -0.80000
O747        O  0.99960090  0.75743526  0.88217521    -1.90500
Cd748      Cd  0.04212469  0.75640415  0.84850787     1.59900
O749        O  0.42593155  0.71231369  0.85927193    -0.80000
O750        O  0.07394200  0.80074569  0.85855160    -0.78600
C751        C  0.43078649  0.82860461  0.88214590     0.83900
C752        C  0.99974481  0.75668249  0.98642779     0.83600
O753        O  0.04542489  0.82790842  0.90433885    -0.77600
C754        C  0.06943889  0.68540410  0.88190967     0.84400
O755        O  0.45700746  0.83001175  0.90422752    -0.77700
C756        C  0.42841601  0.68636446  0.88182247     0.84500
C757        C  0.99925758  0.75714705  0.77664275     0.84800
O758        O  0.46934111  0.75768702  0.79382536    -0.80100
C759        C  0.15223568  0.88066375  0.90879006     0.04000
C760        C  0.15201932  0.90759874  0.88222453    -0.12100
C761        C  0.12533497  0.90757790  0.85570384     0.01500
C762        C  0.09892434  0.88066764  0.85560496    -0.10700
C763        C  0.09912159  0.85372287  0.88214923     0.04000
C764        C  0.12576934  0.85367028  0.90881976    -0.10100
H765        H  0.17251549  0.92850037  0.88220035     0.09600
H766        H  0.07829528  0.88069310  0.83494085     0.07100
H767        H  0.12591452  0.83278945  0.92942518     0.07000
O768        O  0.10258497  0.96174293  0.68529063    -0.77600
C769        C  0.02031909  0.50661625  0.75740294     0.83400
O770        O  0.14684803  0.58018250  0.71205519    -0.78700
O771        O  0.10170177  0.55119046  0.83044318    -0.80200
O772        O  0.14804935  0.93331731  0.80234089    -0.80000
O773        O  0.14849580  0.93326329  0.71217077    -0.78600
Zn774      Zn  0.09230999  0.50604456  0.71513179     1.55700
O775        O  0.10208757  0.96086196  0.83050176    -0.80000
Cd776      Cd  0.15819745  0.96405758  0.75707321     1.59700
Cd777      Cd  0.15769090  0.54914457  0.75695999     1.59600
O778        O  0.21331194  0.97681759  0.75700461    -0.80000
O779        O  0.12453785  0.50639318  0.75668941    -1.90500
Cd780      Cd  0.09162062  0.50614115  0.79984152     1.59900
O781        O  0.21304338  0.53673046  0.75653646    -0.80000
O782        O  0.03645313  0.50643760  0.78770730    -0.78600
C783        C  0.12391186  0.57678878  0.68680493     0.83900
C784        C  0.12537297  0.93602316  0.68701411     0.83600
O785        O  0.03821546  0.50634472  0.72788005    -0.77600
C786        C  0.12515469  0.93550102  0.82798518     0.84400
O787        O  0.10202711  0.55035234  0.68505272    -0.77700
C788        C  0.23014251  0.50683169  0.75673000     0.84500
C789        C  0.12450879  0.57679847  0.82794764     0.84800
O790        O  0.14744482  0.57940351  0.80233986    -0.80100
C791        C  0.37615678  0.91032843  0.65697951     0.04000
C792        C  0.34954170  0.91041408  0.63031940    -0.12100
C793        C  0.34964890  0.88366299  0.60380159     0.01500
C794        C  0.37631956  0.85699276  0.60387089    -0.10700
C795        C  0.40290674  0.85706877  0.63047692     0.04000
C796        C  0.40288875  0.88370616  0.65703749    -0.10100
H797        H  0.32871507  0.93097103  0.63039169     0.09600
H798        H  0.37625109  0.83613380  0.58344101     0.07100
H799        H  0.42345649  0.88360204  0.67776078     0.07000
C800        C  0.09569791  0.65695844  0.63105492     0.04000
C801        C  0.12263866  0.65725081  0.60445880    -0.12100
C802        C  0.14977195  0.63102392  0.60493828     0.01500
C803        C  0.14999013  0.60448093  0.63187413    -0.10700
C804        C  0.12305278  0.60414686  0.65843061     0.04000
C805        C  0.09585517  0.63037842  0.65807605    -0.10100
H806        H  0.12267407  0.67797334  0.58367599     0.09600
H807        H  0.17111968  0.58422287  0.63223472     0.07100
H808        H  0.07518438  0.63034528  0.67890609     0.07000
O809        O  0.45426974  0.68604612  0.60853864    -0.77600
C810        C  0.50001171  0.75746998  0.52663404     0.83400
O811        O  0.07201942  0.71080026  0.65427279    -0.78700
O812        O  0.04593537  0.83020876  0.60874268    -0.80200
O813        O  0.42726179  0.80349728  0.65379552    -0.80000
O814        O  0.42520182  0.71324087  0.65396972    -0.78600
Zn815      Zn  0.49910665  0.71509208  0.59864192     1.55700
O816        O  0.45601599  0.83102445  0.60796174    -0.80000
Cd817      Cd  0.45686964  0.75769621  0.66425096     1.59700
Cd818      Cd  0.04203693  0.75641268  0.66424527     1.59600
O819        O  0.46926273  0.75752902  0.71956626    -0.80000
O820        O  0.49965857  0.75665656  0.63087310    -1.90500
Cd821      Cd  0.50076971  0.79980265  0.59798571     1.59900
O822        O  0.02917587  0.75647115  0.71938258    -0.80000
O823        O  0.50082754  0.78771951  0.54282751    -0.78600
C824        C  0.06853062  0.68541664  0.63151851     0.83900
C825        C  0.42808255  0.68806870  0.63084534     0.83600
O826        O  0.49939353  0.72790988  0.54447934    -0.77600
C827        C  0.43029788  0.82899653  0.63080306     0.84400
O828        O  0.04263672  0.68407871  0.60903968    -0.77700
C829        C  0.49920158  0.75705064  0.73643949     0.84500
C830        C  0.07113522  0.82743853  0.63183464     0.84800
O831        O  0.07323031  0.80149819  0.65441929    -0.80100
C832        C  0.40382388  0.85723028  0.88281963     0.04000
C833        C  0.40352816  0.88361019  0.85564308    -0.12100
C834        C  0.37674276  0.91023720  0.85561374     0.01500
C835        C  0.35028987  0.91049746  0.88269379    -0.10700
C836        C  0.35057859  0.88404279  0.90975680     0.04000
C837        C  0.37735549  0.85743633  0.90987105    -0.10100
H838        H  0.42383947  0.88323272  0.83446383     0.09600
H839        H  0.32933245  0.93093289  0.88246328     0.07100
H840        H  0.37729747  0.83669218  0.93063313     0.07000
C841        C  0.84829568  0.13186352  0.10344983     0.04000
C842        C  0.84859815  0.10517517  0.13028049    -0.12100
C843        C  0.87493705  0.10589808  0.15716555     0.01500
C844        C  0.90095934  0.13317534  0.15728085    -0.10700
C845        C  0.90069270  0.15985067  0.13047882     0.04000
C846        C  0.87435592  0.15926524  0.10351531    -0.10100
H847        H  0.82829378  0.08409112  0.13038623     0.09600
H848        H  0.92134940  0.13364654  0.17817469     0.07100
H849        H  0.87402519  0.18008216  0.08284885     0.07000
C850        C  0.59897987  0.35516296  0.13227270     0.04000
C851        C  0.62623113  0.35493879  0.10604891    -0.12100
C852        C  0.65300067  0.38149973  0.10629217    -0.00300
C853        C  0.65259755  0.40829102  0.13275018    -0.10700
C854        C  0.62525379  0.40856664  0.15895545     0.04000
C855        C  0.59840209  0.38199369  0.15873406    -0.10100
H856        H  0.62653020  0.33424739  0.08545007     0.09600
H857        H  0.67342936  0.42885080  0.13291428     0.07100
H858        H  0.57729622  0.38208997  0.17911531     0.07000
C859        C  0.62424934  0.10450575  0.35562935     0.04000
C860        C  0.65101098  0.10477284  0.38209307    -0.12100
C861        C  0.65076478  0.13151183  0.40858957     0.01500
C862        C  0.62382578  0.15791896  0.40867524    -0.10700
C863        C  0.59712263  0.15758695  0.38215742     0.04000
C864        C  0.59727953  0.13089840  0.35562500    -0.10100
H865        H  0.67191246  0.08428514  0.38206992     0.09600
H866        H  0.62368860  0.17866235  0.42921886     0.07100
H867        H  0.57659093  0.13073215  0.33502658     0.07000
O868        O  0.96217680  0.00739810  0.28595883    -0.77600
C869        C  0.87475763  0.07767921  0.32657882     0.83400
O870        O  0.85342361  0.43367429  0.30147721    -0.78700
O871        O  0.78714745  0.03697775  0.25636052    -0.80200
O872        O  0.89858510  0.05315904  0.18303728    -0.80000
O873        O  0.96405450  0.00751650  0.22612399    -0.78600
Zn874      Zn  0.90797454  0.00784382  0.29846036     1.55700
O875        O  0.85222216  0.08045628  0.21075225    -0.80000
Cd876      Cd  0.90895504  0.00798022  0.21377682     1.59700
Cd877      Cd  0.84282938  0.46467506  0.25638966     1.59600
O878        O  0.89873835  0.46332797  0.18273300    -0.80000
O879        O  0.87588495  0.00752265  0.25679597    -1.90500
Cd880      Cd  0.84221444  0.04985216  0.25625553     1.59900
O881        O  0.85313188  0.43475556  0.21070745    -0.80000
O882        O  0.85173872  0.08056269  0.30132689    -0.78600
C883        C  0.87598293  0.43738837  0.32703013     0.83900
C884        C  0.98012903  0.00720391  0.25646123     0.83600
O885        O  0.89760254  0.05202526  0.32823172    -0.77600
C886        C  0.87524797  0.07828665  0.18520965     0.84400
O887        O  0.89779999  0.46387029  0.32879312    -0.77700
C888        C  0.87592548  0.43771398  0.18499145     0.84500
C889        C  0.77034174  0.00695249  0.25662721     0.84800
O890        O  0.78746217  0.47706531  0.25679641    -0.80100
C891        C  0.87479606  0.10490098  0.35484826     0.04000
C892        C  0.84793908  0.10446816  0.38157871    -0.12100
C893        C  0.84763542  0.13098837  0.40832584     0.01500
C894        C  0.87406181  0.15792515  0.40833192    -0.10700
C895        C  0.90083357  0.15835791  0.38160566     0.04000
C896        C  0.90126502  0.13183861  0.35485678    -0.10100
H897        H  0.82728094  0.08373593  0.38144577     0.09600
H898        H  0.87373019  0.17854206  0.42900416     0.07100
H899        H  0.92201032  0.13222861  0.33410724     0.07000
O900        O  0.77908667  0.04443627  0.00686835    -0.77600
C901        C  0.81936274  0.13122177  0.43580886     0.83400
O902        O  0.79420094  0.15435068  0.07966766    -0.78700
O903        O  0.75012939  0.21985664  0.47672367    -0.80200
O904        O  0.67627584  0.10860307  0.46171832    -0.80000
O905        O  0.71923858  0.04340792  0.00683499    -0.78600
Zn906      Zn  0.79157602  0.09876379  0.00657496     1.55700
O907        O  0.70381486  0.15483815  0.43378472    -0.80000
Cd908      Cd  0.70678491  0.09842657  0.00682051     1.59700
Cd909      Cd  0.74900486  0.16428992  0.04927085     1.59600
O910        O  0.67566286  0.10859043  0.05175662    -0.80000
O911        O  0.74980856  0.13111817  0.00669203    -1.90500
Cd912      Cd  0.74924036  0.16467120  0.46406528     1.59900
O913        O  0.70352293  0.15398176  0.07999114    -0.80000
O914        O  0.79402103  0.15423306  0.43282605    -0.78600
C915        C  0.81996325  0.13186538  0.07628319     0.83900
C916        C  0.74942150  0.02690085  0.00679943     0.83600
O917        O  0.82128305  0.10881340  0.46193760    -0.77600
C918        C  0.67848822  0.13169864  0.43624760     0.84400
O919        O  0.82190307  0.10941573  0.05037752    -0.77700
C920        C  0.67787591  0.13126086  0.07734667     0.84500
C921        C  0.75015042  0.23665846  0.00670240     0.84800
O922        O  0.74951843  0.21953693  0.03665575    -0.80100
O923        O  0.77960852  0.46960406  0.00671244    -0.77600
C924        C  0.82143869  0.38288058  0.07662279     0.83400
O925        O  0.79703899  0.35993981  0.43380787    -0.78700
O926        O  0.75089028  0.29365394  0.03673421    -0.80200
O927        O  0.67790528  0.40407610  0.05246612    -0.80000
O928        O  0.71977179  0.46969424  0.00651214    -0.78600
Zn929      Zn  0.79274035  0.41554952  0.00677764     1.55700
O930        O  0.70668391  0.35910997  0.08091199    -0.80000
Cd931      Cd  0.70810333  0.41442207  0.00684910     1.59700
Cd932      Cd  0.75161622  0.34924958  0.46419498     1.59600
O933        O  0.67711998  0.40339190  0.46219663    -0.80000
O934        O  0.75159690  0.38240758  0.00679200    -1.90500
Cd935      Cd  0.75152035  0.34884501  0.04942532     1.59900
O936        O  0.70637065  0.35900491  0.43349393    -0.80000
O937        O  0.79687851  0.35898080  0.07947302    -0.78600
C938        C  0.82207764  0.38324672  0.43697161     0.83900
C939        C  0.74970146  0.48667673  0.00666111     0.83600
O940        O  0.82250777  0.40591630  0.05100056    -0.77600
C941        C  0.68082898  0.38162567  0.07841377     0.84400
O942        O  0.82327227  0.40577506  0.46280487    -0.77700
C943        C  0.68006871  0.38094506  0.43642576     0.84500
C944        C  0.75088381  0.27685635  0.00675054     0.84800
O945        O  0.75142382  0.29398319  0.47679612    -0.80100
O946        O  0.50029937  0.28623763  0.46857819    -0.77600
C947        C  0.57141603  0.32582234  0.38180339     0.83400
O948        O  0.92691141  0.30313001  0.35954617    -0.78700
O949        O  0.52926462  0.25665149  0.29338516    -0.80200
O950        O  0.54396881  0.18337058  0.40503822    -0.80000
O951        O  0.49897192  0.22643385  0.47023621    -0.78600
Zn952      Zn  0.50049767  0.29899116  0.41440732     1.55700
O953        O  0.57200369  0.21073316  0.35868376    -0.80000
Cd954      Cd  0.49897079  0.21432618  0.41509367     1.59700
Cd955      Cd  0.95688558  0.25757291  0.34914987     1.59600
O956        O  0.95388947  0.18371586  0.40462369    -0.80000
O957        O  0.49960103  0.25743526  0.38217527    -1.90500
Cd958      Cd  0.54212469  0.25640416  0.34850788     1.59900
O959        O  0.92593146  0.21231366  0.35927186    -0.80000
O960        O  0.57394194  0.30074575  0.35855163    -0.78600
C961        C  0.93078653  0.32860466  0.38214587     0.83900
C962        C  0.49974473  0.25668256  0.48642779     0.83600
O963        O  0.54542481  0.32790845  0.40433888    -0.77600
C964        C  0.56943893  0.18540410  0.38190968     0.84400
O965        O  0.95700746  0.33001174  0.40422755    -0.77700
C966        C  0.92841609  0.18636442  0.38182241     0.84500
C967        C  0.49925767  0.25714707  0.27664273     0.84800
O968        O  0.96934098  0.25768705  0.29382534    -0.80100
C969        C  0.65223568  0.38066379  0.40878994     0.04000
C970        C  0.65201930  0.40759876  0.38222448    -0.12100
C971        C  0.62533494  0.40757800  0.35570383     0.01500
C972        C  0.59892435  0.38066771  0.35560486    -0.10700
C973        C  0.59912153  0.35372294  0.38214915     0.04000
C974        C  0.62576931  0.35367029  0.40881970    -0.10100
H975        H  0.67251550  0.42850046  0.38220038     0.09600
H976        H  0.57829521  0.38069341  0.33494082     0.07100
H977        H  0.62591444  0.33279004  0.42942485     0.07000
O978        O  0.60258500  0.46174295  0.18529054    -0.77600
C979        C  0.52031916  0.00661622  0.25740294     0.83400
O980        O  0.64684800  0.08018251  0.21205521    -0.78700
O981        O  0.60170176  0.05119050  0.33044321    -0.80200
O982        O  0.64804934  0.43331732  0.30234089    -0.80000
O983        O  0.64849582  0.43326321  0.21217083    -0.78600
Zn984      Zn  0.59231001  0.00604460  0.21513171     1.55700
O985        O  0.60208753  0.46086194  0.33050177    -0.80000
Cd986      Cd  0.65819742  0.46405760  0.25707324     1.59700
Cd987      Cd  0.65769090  0.04914458  0.25696000     1.59600
O988        O  0.71331188  0.47681762  0.25700464    -0.80000
O989        O  0.62453785  0.00639317  0.25668933    -1.90500
Cd990      Cd  0.59162065  0.00614117  0.29984155     1.59900
O991        O  0.71304334  0.03673050  0.25653641    -0.80000
O992        O  0.53645325  0.00643760  0.28770731    -0.78600
C993        C  0.62391184  0.07678882  0.18680494     0.83900
C994        C  0.62537302  0.43602316  0.18701412     0.83600
O995        O  0.53821550  0.00634473  0.22788002    -0.77600
C996        C  0.62515467  0.43550103  0.32798518     0.84400
O997        O  0.60202710  0.05035239  0.18505266    -0.77700
C998        C  0.73014250  0.00683176  0.25673008     0.84500
C999        C  0.62450881  0.07679848  0.32794768     0.84800
O1000       O  0.64744482  0.07940351  0.30233988    -0.80100
C1001       C  0.87615695  0.41032844  0.15697953     0.04000
C1002       C  0.84954174  0.41041419  0.13031944    -0.12100
C1003       C  0.84964894  0.38366297  0.10380161     0.01500
C1004       C  0.87631956  0.35699271  0.10387091    -0.10700
C1005       C  0.90290675  0.35706874  0.13047696     0.04000
C1006       C  0.90288880  0.38370613  0.15703753    -0.10100
H1007       H  0.82871574  0.43097084  0.13039174     0.09600
H1008       H  0.87625107  0.33613372  0.08344108     0.07100
H1009       H  0.92345653  0.38360196  0.17776084     0.07000
C1010       C  0.59569790  0.15695845  0.13105496     0.04000
C1011       C  0.62263863  0.15725082  0.10445883    -0.12100
C1012       C  0.64977192  0.13102394  0.10493830     0.01500
C1013       C  0.64999011  0.10448096  0.13187416    -0.10700
C1014       C  0.62305276  0.10414690  0.15843065     0.04000
C1015       C  0.59585514  0.13037844  0.15807608    -0.10100
H1016       H  0.62267404  0.17797336  0.08367602     0.09600
H1017       H  0.67111965  0.08422288  0.13223475     0.07100
H1018       H  0.57518436  0.13034530  0.17890612     0.07000
O1019       O  0.95426976  0.18604611  0.10853869    -0.77600
C1020       C  0.00001159  0.25746989  0.02663405     0.83400
O1021       O  0.57201941  0.21080028  0.15427281    -0.78700
O1022       O  0.54593538  0.33020876  0.10874271    -0.80200
O1023       O  0.92726176  0.30349729  0.15379555    -0.80000
O1024       O  0.92520183  0.21324091  0.15396968    -0.78600
Zn1025     Zn  0.99910666  0.21509206  0.09864196     1.55700
O1026       O  0.95601593  0.33102448  0.10796175    -0.80000
Cd1027     Cd  0.95686960  0.25769623  0.16425099     1.59700
Cd1028     Cd  0.54203692  0.25641268  0.16424529     1.59600
O1029       O  0.96926264  0.25752904  0.21956634    -0.80000
O1030       O  0.99965849  0.25665658  0.13087311    -1.90500
Cd1031     Cd  0.00076964  0.29980268  0.09798573     1.59900
O1032       O  0.52917593  0.25647116  0.21938255    -0.80000
O1033       O  0.00082749  0.28771949  0.04282750    -0.78600
C1034       C  0.56853062  0.18541665  0.13151855     0.83900
C1035       C  0.92808256  0.18806869  0.13084534     0.83600
O1036       O  0.99939355  0.22790973  0.04447932    -0.77600
C1037       C  0.93029785  0.32899653  0.13080309     0.84400
O1038       O  0.54263674  0.18407870  0.10903970    -0.77700
C1039       C  0.99920152  0.25705066  0.23643950     0.84500
C1040       C  0.57113523  0.32743853  0.13183466     0.84800
O1041       O  0.57323029  0.30149818  0.15441931    -0.80100
C1042       C  0.90382385  0.35723028  0.38281955     0.04000
C1043       C  0.90352821  0.38361019  0.35564304    -0.12100
C1044       C  0.87674275  0.41023711  0.35561364     0.01500
C1045       C  0.85028988  0.41049742  0.38269376    -0.10700
C1046       C  0.85057852  0.38404273  0.40975675     0.04000
C1047       C  0.87735544  0.35743629  0.40987100    -0.10100
H1048       H  0.92383968  0.38323278  0.33446384     0.09600
H1049       H  0.82933238  0.43093271  0.38246311     0.07100
H1050       H  0.87729711  0.33669176  0.43063267     0.07000
C1051       C  0.84829571  0.13186359  0.60344983     0.04000
C1052       C  0.84859824  0.10517522  0.63028044    -0.12100
C1053       C  0.87493706  0.10589814  0.65716555     0.01500
C1054       C  0.90095929  0.13317536  0.65728084    -0.10700
C1055       C  0.90069274  0.15985074  0.63047889     0.04000
C1056       C  0.87435598  0.15926520  0.60351543    -0.10100
H1057       H  0.82829388  0.08409101  0.63038618     0.09600
H1058       H  0.92134954  0.13364649  0.67817516     0.07100
H1059       H  0.87402507  0.18008275  0.58284867     0.07000
C1060       C  0.59897983  0.35516290  0.63227269     0.04000
C1061       C  0.62623104  0.35493879  0.60604889    -0.12100
C1062       C  0.65300062  0.38149971  0.60629216    -0.00300
C1063       C  0.65259755  0.40829100  0.63275013    -0.10700
C1064       C  0.62525378  0.40856666  0.65895542     0.04000
C1065       C  0.59840204  0.38199370  0.65873402    -0.10100
H1066       H  0.62653018  0.33424731  0.58545001     0.09600
H1067       H  0.67342935  0.42885078  0.63291401     0.07100
H1068       H  0.57729622  0.38208998  0.67911529     0.07000
C1069       C  0.62424935  0.10450571  0.85562933     0.04000
C1070       C  0.65101100  0.10477281  0.88209306    -0.12100
C1071       C  0.65076477  0.13151180  0.90858957     0.01500
C1072       C  0.62382576  0.15791892  0.90867522    -0.10700
C1073       C  0.59712261  0.15758688  0.88215740     0.04000
C1074       C  0.59727955  0.13089835  0.85562497    -0.10100
H1075       H  0.67191251  0.08428511  0.88206993     0.09600
H1076       H  0.62368856  0.17866233  0.92921882     0.07100
H1077       H  0.57659099  0.13073207  0.83502655     0.07000
O1078       O  0.96217679  0.00739819  0.78595880    -0.77600
C1079       C  0.87475755  0.07767919  0.82657881     0.83400
O1080       O  0.85342356  0.43367429  0.80147718    -0.78700
O1081       O  0.78714740  0.03697789  0.75636048    -0.80200
O1082       O  0.89858510  0.05315902  0.68303729    -0.80000
O1083       O  0.96405449  0.00751642  0.72612396    -0.78600
Zn1084     Zn  0.90797454  0.00784382  0.79846034     1.55700
O1085       O  0.85222218  0.08045624  0.71075226    -0.80000
Cd1086     Cd  0.90895502  0.00798018  0.71377682     1.59700
Cd1087     Cd  0.84282937  0.46467506  0.75638967     1.59600
O1088       O  0.89873836  0.46332792  0.68273300    -0.80000
O1089       O  0.87588482  0.00752261  0.75679596    -1.90500
Cd1090     Cd  0.84221444  0.04985214  0.75625551     1.59900
O1091       O  0.85313189  0.43475551  0.71070742    -0.80000
O1092       O  0.85173871  0.08056270  0.80132682    -0.78600
C1093       C  0.87598280  0.43738843  0.82703020     0.83900
C1094       C  0.98012901  0.00720400  0.75646121     0.83600
O1095       O  0.89760251  0.05202528  0.82823168    -0.77600
C1096       C  0.87524797  0.07828664  0.68520965     0.84400
O1097       O  0.89780005  0.46387019  0.82879312    -0.77700
C1098       C  0.87592543  0.43771398  0.68499140     0.84500
C1099       C  0.77034173  0.00695258  0.75662736     0.84800
O1100       O  0.78746218  0.47706534  0.75679646    -0.80100
C1101       C  0.87479608  0.10490098  0.85484822     0.04000
C1102       C  0.84793912  0.10446815  0.88157867    -0.12100
C1103       C  0.84763539  0.13098835  0.90832580     0.01500
C1104       C  0.87406174  0.15792514  0.90833190    -0.10700
C1105       C  0.90083357  0.15835788  0.88160568     0.04000
C1106       C  0.90126502  0.13183864  0.85485675    -0.10100
H1107       H  0.82728101  0.08373591  0.88144569     0.09600
H1108       H  0.87373014  0.17854195  0.92900411     0.07100
H1109       H  0.92201042  0.13222867  0.83410723     0.07000
O1110       O  0.77908665  0.04443624  0.50686844    -0.77600
C1111       C  0.81936271  0.13122174  0.93580883     0.83400
O1112       O  0.79420093  0.15435065  0.57966764    -0.78700
O1113       O  0.75012938  0.21985663  0.97672369    -0.80200
O1114       O  0.67627584  0.10860305  0.96171833    -0.80000
O1115       O  0.71923856  0.04340789  0.50683491    -0.78600
Zn1116     Zn  0.79157601  0.09876377  0.50657497     1.55700
O1117       O  0.70381484  0.15483812  0.93378470    -0.80000
Cd1118     Cd  0.70678490  0.09842654  0.50682049     1.59700
Cd1119     Cd  0.74900484  0.16428990  0.54927083     1.59600
O1120       O  0.67566285  0.10859040  0.55175660    -0.80000
O1121       O  0.74980855  0.13111815  0.50669202    -1.90500
Cd1122     Cd  0.74924035  0.16467119  0.96406526     1.59900
O1123       O  0.70352291  0.15398173  0.57999111    -0.80000
O1124       O  0.79402101  0.15423303  0.93282602    -0.78600
C1125       C  0.81996327  0.13186538  0.57628320     0.83900
C1126       C  0.74942148  0.02690082  0.50679952     0.83600
O1127       O  0.82128305  0.10881340  0.96193760    -0.77600
C1128       C  0.67848820  0.13169861  0.93624760     0.84400
O1129       O  0.82190309  0.10941572  0.55037753    -0.77700
C1130       C  0.67787590  0.13126083  0.57734665     0.84500
C1131       C  0.75015043  0.23665846  0.50670240     0.84800
O1132       O  0.74951841  0.21953693  0.53665575    -0.80100
O1133       O  0.77960850  0.46960404  0.50671242    -0.77600
C1134       C  0.82143871  0.38288060  0.57662277     0.83400
O1135       O  0.79703898  0.35993978  0.93380787    -0.78700
O1136       O  0.75089025  0.29365394  0.53673424    -0.80200
O1137       O  0.67790529  0.40407604  0.55246612    -0.80000
O1138       O  0.71977176  0.46969436  0.50651213    -0.78600
Zn1139     Zn  0.79274033  0.41554950  0.50677761     1.55700
O1140       O  0.70668395  0.35910999  0.58091198    -0.80000
Cd1141     Cd  0.70810332  0.41442219  0.50684908     1.59700
Cd1142     Cd  0.75161621  0.34924956  0.96419496     1.59600
O1143       O  0.67711996  0.40339172  0.96219669    -0.80000
O1144       O  0.75159683  0.38240766  0.50679201    -1.90500
Cd1145     Cd  0.75152034  0.34884501  0.54942532     1.59900
O1146       O  0.70637069  0.35900497  0.93349388    -0.80000
O1147       O  0.79687856  0.35898081  0.57947303    -0.78600
C1148       C  0.82207762  0.38324672  0.93697163     0.83900
C1149       C  0.74970146  0.48667676  0.50666112     0.83600
O1150       O  0.82250774  0.40591632  0.55100051    -0.77600
C1151       C  0.68082899  0.38162565  0.57841379     0.84400
O1152       O  0.82327221  0.40577505  0.96280491    -0.77700
C1153       C  0.68006873  0.38094501  0.93642577     0.84500
C1154       C  0.75088381  0.27685635  0.50675055     0.84800
O1155       O  0.75142380  0.29398319  0.97679611    -0.80100
O1156       O  0.50029934  0.28623760  0.96857822    -0.77600
C1157       C  0.57141603  0.32582240  0.88180329     0.83400
O1158       O  0.92691135  0.30313009  0.85954610    -0.78700
O1159       O  0.52926469  0.25665147  0.79338519    -0.80200
O1160       O  0.54396879  0.18337055  0.90503819    -0.80000
O1161       O  0.49897193  0.22643382  0.97023619    -0.78600
Zn1162     Zn  0.50049767  0.29899114  0.91440730     1.55700
O1163       O  0.57200377  0.21073309  0.85868374    -0.80000
Cd1164     Cd  0.49897077  0.21432617  0.91509364     1.59700
Cd1165     Cd  0.95688558  0.25757305  0.84914985     1.59600
O1166       O  0.95388939  0.18371589  0.90462372    -0.80000
O1167       O  0.49960113  0.25743528  0.88217519    -1.90500
Cd1168     Cd  0.54212482  0.25640414  0.84850787     1.59900
O1169       O  0.92593159  0.21231373  0.85927190    -0.80000
O1170       O  0.57394207  0.30074573  0.85855161    -0.78600
C1171       C  0.93078646  0.32860462  0.88214594     0.83900
C1172       C  0.49974469  0.25668252  0.98642779     0.83600
O1173       O  0.54542487  0.32790840  0.90433884    -0.77600
C1174       C  0.56943893  0.18540403  0.88190965     0.84400
O1175       O  0.95700749  0.33001172  0.90422752    -0.77700
C1176       C  0.92841605  0.18636448  0.88182245     0.84500
C1177       C  0.49925769  0.25714704  0.77664276     0.84800
O1178       O  0.96934114  0.25768709  0.79382539    -0.80100
C1179       C  0.65223566  0.38066361  0.90879008     0.04000
C1180       C  0.65201934  0.40759865  0.88222458    -0.12100
C1181       C  0.62533488  0.40757786  0.85570387     0.01500
C1182       C  0.59892435  0.38066764  0.85560493    -0.10700
C1183       C  0.59912155  0.35372290  0.88214925     0.04000
C1184       C  0.62576933  0.35367023  0.90881979    -0.10100
H1185       H  0.67251519  0.42849970  0.88220044     0.09600
H1186       H  0.57829524  0.38069316  0.83494076     0.07100
H1187       H  0.62591447  0.33278940  0.92942519     0.07000
O1188       O  0.60258498  0.46174296  0.68529061    -0.77600
C1189       C  0.52031909  0.00661623  0.75740294     0.83400
O1190       O  0.64684800  0.08018248  0.71205519    -0.78700
O1191       O  0.60170175  0.05119042  0.83044322    -0.80200
O1192       O  0.64804935  0.43331734  0.80234092    -0.80000
O1193       O  0.64849582  0.43326319  0.71217082    -0.78600
Zn1194     Zn  0.59231000  0.00604456  0.71513180     1.55700
O1195       O  0.60208755  0.46086198  0.83050178    -0.80000
Cd1196     Cd  0.65819743  0.46405758  0.75707321     1.59700
Cd1197     Cd  0.65769088  0.04914456  0.75695999     1.59600
O1198       O  0.71331188  0.47681758  0.75700461    -0.80000
O1199       O  0.62453789  0.00639314  0.75668941    -1.90500
Cd1200     Cd  0.59162064  0.00614115  0.79984153     1.59900
O1201       O  0.71304330  0.03673046  0.75653646    -0.80000
O1202       O  0.53645318  0.00643758  0.78770729    -0.78600
C1203       C  0.62391182  0.07678877  0.68680494     0.83900
C1204       C  0.62537302  0.43602318  0.68701412     0.83600
O1205       O  0.53821543  0.00634470  0.72788006    -0.77600
C1206       C  0.62515462  0.43550099  0.82798516     0.84400
O1207       O  0.60202707  0.05035233  0.68505273    -0.77700
C1208       C  0.73014248  0.00683171  0.75673000     0.84500
C1209       C  0.62450873  0.07679847  0.82794764     0.84800
O1210       O  0.64744480  0.07940346  0.80233990    -0.80100
C1211       C  0.87615693  0.41032844  0.65697957     0.04000
C1212       C  0.84954171  0.41041418  0.63031945    -0.12100
C1213       C  0.84964897  0.38366302  0.60380162     0.01500
C1214       C  0.87631964  0.35699277  0.60387083    -0.10700
C1215       C  0.90290682  0.35706883  0.63047700     0.04000
C1216       C  0.90288880  0.38370613  0.65703764    -0.10100
H1217       H  0.82871578  0.43097074  0.63039167     0.09600
H1218       H  0.87625152  0.33613459  0.58344099     0.07100
H1219       H  0.92345650  0.38360191  0.67776103     0.07000
C1220       C  0.59569785  0.15695839  0.63105498     0.04000
C1221       C  0.62263862  0.15725075  0.60445882    -0.12100
C1222       C  0.64977190  0.13102390  0.60493829     0.01500
C1223       C  0.64999006  0.10448093  0.63187415    -0.10700
C1224       C  0.62305266  0.10414686  0.65843068     0.04000
C1225       C  0.59585508  0.13037842  0.65807608    -0.10100
H1226       H  0.62267403  0.17797330  0.58367602     0.09600
H1227       H  0.67111962  0.08422286  0.63223472     0.07100
H1228       H  0.57518378  0.13034527  0.67890639     0.07000
O1229       O  0.95426975  0.18604609  0.60853867    -0.77600
C1230       C  0.00001159  0.25747005  0.52663405     0.83400
O1231       O  0.57201943  0.21080031  0.65427275    -0.78700
O1232       O  0.54593533  0.33020876  0.60874269    -0.80200
O1233       O  0.92726177  0.30349734  0.65379556    -0.80000
O1234       O  0.92520184  0.21324093  0.65396966    -0.78600
Zn1235     Zn  0.99910664  0.21509205  0.59864194     1.55700
O1236       O  0.95601595  0.33102446  0.60796165    -0.80000
Cd1237     Cd  0.95686959  0.25769621  0.66425098     1.59700
Cd1238     Cd  0.54203691  0.25641267  0.66424526     1.59600
O1239       O  0.96926265  0.25752900  0.71956630    -0.80000
O1240       O  0.99965847  0.25665654  0.63087309    -1.90500
Cd1241     Cd  0.00076963  0.29980266  0.59798570     1.59900
O1242       O  0.52917590  0.25647113  0.71938257    -0.80000
O1243       O  0.00082749  0.28771964  0.54282748    -0.78600
C1244       C  0.56853067  0.18541666  0.63151852     0.83900
C1245       C  0.92808258  0.18806869  0.63084536     0.83600
O1246       O  0.99939354  0.22790988  0.54447935    -0.77600
C1247       C  0.93029791  0.32899659  0.63080308     0.84400
O1248       O  0.54263677  0.18407869  0.60903976    -0.77700
C1249       C  0.99920153  0.25705062  0.73643949     0.84500
C1250       C  0.57113519  0.32743853  0.63183464     0.84800
O1251       O  0.57323027  0.30149820  0.65441928    -0.80100
C1252       C  0.90382387  0.35723028  0.88281967     0.04000
C1253       C  0.90352816  0.38361015  0.85564308    -0.12100
C1254       C  0.87674275  0.41023717  0.85561372     0.01500
C1255       C  0.85028988  0.41049744  0.88269377    -0.10700
C1256       C  0.85057855  0.38404279  0.90975679     0.04000
C1257       C  0.87735543  0.35743634  0.90987110    -0.10100
H1258       H  0.92383951  0.38323266  0.83446381     0.09600
H1259       H  0.82933250  0.43093285  0.88246325     0.07100
H1260       H  0.87729720  0.33669214  0.93063313     0.07000
C1261       C  0.84829571  0.63186353  0.10344991     0.04000
C1262       C  0.84859821  0.60517520  0.13028055    -0.12100
C1263       C  0.87493704  0.60589815  0.15716566     0.01500
C1264       C  0.90095932  0.63317538  0.15728090    -0.10700
C1265       C  0.90069272  0.65985072  0.13047897     0.04000
C1266       C  0.87435600  0.65926520  0.10351542    -0.10100
H1267       H  0.82829379  0.58409100  0.13038632     0.09600
H1268       H  0.92134944  0.63364678  0.17817524     0.07100
H1269       H  0.87402531  0.68008212  0.08284894     0.07000
C1270       C  0.59897993  0.85516291  0.13227271     0.04000
C1271       C  0.62623118  0.85493882  0.10604891    -0.12100
C1272       C  0.65300067  0.88149978  0.10629219    -0.00300
C1273       C  0.65259754  0.90829107  0.13275020    -0.10700
C1274       C  0.62525377  0.90856667  0.15895544     0.04000
C1275       C  0.59840210  0.88199369  0.15873405    -0.10100
H1276       H  0.62653031  0.83424745  0.08545004     0.09600
H1277       H  0.67342936  0.92885085  0.13291432     0.07100
H1278       H  0.57729623  0.88208996  0.17911527     0.07000
C1279       C  0.62424939  0.60450576  0.35562934     0.04000
C1280       C  0.65101103  0.60477287  0.38209306    -0.12100
C1281       C  0.65076478  0.63151187  0.40858955     0.01500
C1282       C  0.62382579  0.65791900  0.40867523    -0.10700
C1283       C  0.59712261  0.65758692  0.38215745     0.04000
C1284       C  0.59727958  0.63089837  0.35562501    -0.10100
H1285       H  0.67191246  0.58428521  0.38206998     0.09600
H1286       H  0.62368858  0.67866237  0.42921889     0.07100
H1287       H  0.57659099  0.63073210  0.33502659     0.07000
O1288       O  0.96217682  0.50739810  0.28595886    -0.77600
C1289       C  0.87475760  0.57767911  0.32657883     0.83400
O1290       O  0.85342359  0.93367427  0.30147717    -0.78700
O1291       O  0.78714746  0.53697772  0.25636057    -0.80200
O1292       O  0.89858508  0.55315905  0.18303731    -0.80000
O1293       O  0.96405451  0.50751652  0.22612403    -0.78600
Zn1294     Zn  0.90797454  0.50784381  0.29846038     1.55700
O1295       O  0.85222214  0.58045618  0.21075233    -0.80000
Cd1296     Cd  0.90895503  0.50798022  0.21377682     1.59700
Cd1297     Cd  0.84282937  0.96467508  0.25638967     1.59600
O1298       O  0.89873832  0.96332796  0.18273299    -0.80000
O1299       O  0.87588488  0.50752254  0.25679597    -1.90500
Cd1300     Cd  0.84221442  0.54985201  0.25625553     1.59900
O1301       O  0.85313184  0.93475557  0.21070744    -0.80000
O1302       O  0.85173871  0.58056261  0.30132682    -0.78600
C1303       C  0.87598283  0.93738840  0.32703015     0.83900
C1304       C  0.98012904  0.50720392  0.25646125     0.83600
O1305       O  0.89760266  0.55202522  0.32823180    -0.77600
C1306       C  0.87524795  0.57828665  0.18520973     0.84400
O1307       O  0.89779998  0.96387024  0.32879310    -0.77700
C1308       C  0.87592542  0.93771399  0.18499142     0.84500
C1309       C  0.77034176  0.50695246  0.25662727     0.84800
O1310       O  0.78746216  0.97706532  0.25679638    -0.80100
C1311       C  0.87479606  0.60490096  0.35484820     0.04000
C1312       C  0.84793910  0.60446814  0.38157865    -0.12100
C1313       C  0.84763545  0.63098833  0.40832584     0.01500
C1314       C  0.87406179  0.65792515  0.40833190    -0.10700
C1315       C  0.90083354  0.65835794  0.38160565     0.04000
C1316       C  0.90126502  0.63183863  0.35485676    -0.10100
H1317       H  0.82728099  0.58373591  0.38144571     0.09600
H1318       H  0.87373014  0.67854205  0.42900415     0.07100
H1319       H  0.92201038  0.63222866  0.33410724     0.07000
O1320       O  0.77908665  0.54443629  0.00686835    -0.77600
C1321       C  0.81936274  0.63122179  0.43580888     0.83400
O1322       O  0.79420093  0.65435068  0.07966769    -0.78700
O1323       O  0.75012937  0.71985665  0.47672367    -0.80200
O1324       O  0.67627585  0.60860316  0.46171832    -0.80000
O1325       O  0.71923856  0.54340790  0.00683498    -0.78600
Zn1326     Zn  0.79157598  0.59876380  0.00657497     1.55700
O1327       O  0.70381489  0.65483812  0.43378466    -0.80000
Cd1328     Cd  0.70678487  0.59842657  0.00682051     1.59700
Cd1329     Cd  0.74900482  0.66428993  0.04927085     1.59600
O1330       O  0.67566282  0.60859044  0.05175662    -0.80000
O1331       O  0.74980852  0.63111818  0.00669203    -1.90500
Cd1332     Cd  0.74924034  0.66467122  0.46406529     1.59900
O1333       O  0.70352289  0.65398177  0.07999114    -0.80000
O1334       O  0.79402102  0.65423311  0.43282613    -0.78600
C1335       C  0.81996325  0.63186538  0.07628325     0.83900
C1336       C  0.74942150  0.52690085  0.00679943     0.83600
O1337       O  0.82128304  0.60881333  0.46193757    -0.77600
C1338       C  0.67848825  0.63169865  0.43624754     0.84400
O1339       O  0.82190306  0.60941575  0.05037756    -0.77700
C1340       C  0.67787587  0.63126087  0.07734667     0.84500
C1341       C  0.75015043  0.73665847  0.00670240     0.84800
O1342       O  0.74951843  0.71953695  0.03665575    -0.80100
O1343       O  0.77960851  0.96960404  0.00671244    -0.77600
C1344       C  0.82143873  0.88288047  0.07662275     0.83400
O1345       O  0.79703896  0.85993982  0.43380788    -0.78700
O1346       O  0.75089030  0.79365395  0.03673421    -0.80200
O1347       O  0.67790525  0.90407614  0.05246614    -0.80000
O1348       O  0.71977177  0.96969426  0.00651214    -0.78600
Zn1349     Zn  0.79274030  0.91554951  0.00677763     1.55700
O1350       O  0.70668385  0.85911003  0.08091203    -0.80000
Cd1351     Cd  0.70810332  0.91442209  0.00684910     1.59700
Cd1352     Cd  0.75161621  0.84924959  0.46419497     1.59600
O1353       O  0.67711997  0.90339181  0.46219664    -0.80000
O1354       O  0.75159687  0.88240759  0.00679200    -1.90500
Cd1355     Cd  0.75152034  0.84884502  0.04942532     1.59900
O1356       O  0.70637061  0.85900498  0.43349383    -0.80000
O1357       O  0.79687856  0.85898074  0.07947298    -0.78600
C1358       C  0.82207760  0.88324674  0.43697161     0.83900
C1359       C  0.74970146  0.98667673  0.00666111     0.83600
O1360       O  0.82250764  0.90591623  0.05100057    -0.77600
C1361       C  0.68082889  0.88162567  0.07841376     0.84400
O1362       O  0.82327223  0.90577508  0.46280487    -0.77700
C1363       C  0.68006866  0.88094503  0.43642574     0.84500
C1364       C  0.75088368  0.77685636  0.00675054     0.84800
O1365       O  0.75142385  0.79398320  0.47679612    -0.80100
O1366       O  0.50029932  0.78623762  0.46857823    -0.77600
C1367       C  0.57141601  0.82582247  0.38180337     0.83400
O1368       O  0.92691139  0.80312997  0.35954616    -0.78700
O1369       O  0.52926462  0.75665137  0.29338518    -0.80200
O1370       O  0.54396878  0.68337059  0.40503823    -0.80000
O1371       O  0.49897187  0.72643383  0.47023618    -0.78600
Zn1372     Zn  0.50049764  0.79899115  0.41440732     1.55700
O1373       O  0.57200377  0.71073312  0.35868378    -0.80000
Cd1374     Cd  0.49897076  0.71432619  0.41509364     1.59700
Cd1375     Cd  0.95688557  0.75757291  0.34914987     1.59600
O1376       O  0.95388943  0.68371587  0.40462369    -0.80000
O1377       O  0.49960111  0.75743527  0.38217521    -1.90500
Cd1378     Cd  0.54212479  0.75640414  0.34850788     1.59900
O1379       O  0.92593142  0.71231367  0.35927185    -0.80000
O1380       O  0.57394205  0.80074584  0.35855167    -0.78600
C1381       C  0.93078646  0.82860464  0.38214588     0.83900
C1382       C  0.49974467  0.75668253  0.48642779     0.83600
O1383       O  0.54542482  0.82790845  0.40433890    -0.77600
C1384       C  0.56943893  0.68540407  0.38190970     0.84400
O1385       O  0.95700741  0.83001175  0.40422753    -0.77700
C1386       C  0.92841605  0.68636445  0.38182241     0.84500
C1387       C  0.49925765  0.75714696  0.27664275     0.84800
O1388       O  0.96934104  0.75768711  0.29382539    -0.80100
C1389       C  0.65223574  0.88066374  0.40878992     0.04000
C1390       C  0.65201937  0.90759873  0.38222449    -0.12100
C1391       C  0.62533496  0.90757800  0.35570385     0.01500
C1392       C  0.59892441  0.88066772  0.35560487    -0.10700
C1393       C  0.59912156  0.85372301  0.38214919     0.04000
C1394       C  0.62576936  0.85367029  0.40881973    -0.10100
H1395       H  0.67251553  0.92850038  0.38220045     0.09600
H1396       H  0.57829521  0.88069344  0.33494078     0.07100
H1397       H  0.62591447  0.83279004  0.42942488     0.07000
O1398       O  0.60258498  0.96174297  0.18529052    -0.77600
C1399       C  0.52031908  0.50661624  0.25740294     0.83400
O1400       O  0.64684796  0.58018245  0.21205522    -0.78700
O1401       O  0.60170181  0.55119042  0.33044327    -0.80200
O1402       O  0.64804940  0.93331726  0.30234087    -0.80000
O1403       O  0.64849578  0.93326322  0.21217083    -0.78600
Zn1404     Zn  0.59231001  0.50604459  0.21513172     1.55700
O1405       O  0.60208762  0.96086202  0.33050186    -0.80000
Cd1406     Cd  0.65819741  0.96405760  0.25707321     1.59700
Cd1407     Cd  0.65769101  0.54914459  0.25696001     1.59600
O1408       O  0.71331187  0.97681763  0.25700455    -0.80000
O1409       O  0.62453795  0.50639321  0.25668933    -1.90500
Cd1410     Cd  0.59162064  0.50614116  0.29984153     1.59900
O1411       O  0.71304348  0.53673049  0.25653648    -0.80000
O1412       O  0.53645317  0.50643765  0.28770729    -0.78600
C1413       C  0.62391183  0.57678877  0.18680492     0.83900
C1414       C  0.62537298  0.93602317  0.18701412     0.83600
O1415       O  0.53821541  0.50634473  0.22788004    -0.77600
C1416       C  0.62515469  0.93550101  0.32798516     0.84400
O1417       O  0.60202710  0.55035237  0.18505262    -0.77700
C1418       C  0.73014256  0.50683172  0.25672999     0.84500
C1419       C  0.62450881  0.57679850  0.32794766     0.84800
O1420       O  0.64744489  0.57940358  0.30233988    -0.80100
C1421       C  0.87615691  0.91032844  0.15697951     0.04000
C1422       C  0.84954174  0.91041416  0.13031940    -0.12100
C1423       C  0.84964895  0.88366290  0.10380163     0.01500
C1424       C  0.87631964  0.85699271  0.10387089    -0.10700
C1425       C  0.90290678  0.85706876  0.13047698     0.04000
C1426       C  0.90288875  0.88370613  0.15703756    -0.10100
H1427       H  0.82871566  0.93097071  0.13039169     0.09600
H1428       H  0.87625137  0.83613395  0.08344095     0.07100
H1429       H  0.92345647  0.88360198  0.17776095     0.07000
C1430       C  0.59569785  0.65695838  0.13105504     0.04000
C1431       C  0.62263858  0.65725078  0.10445888    -0.12100
C1432       C  0.64977189  0.63102393  0.10493832     0.01500
C1433       C  0.64999004  0.60448093  0.13187418    -0.10700
C1434       C  0.62305263  0.60414683  0.15843069     0.04000
C1435       C  0.59585508  0.63037839  0.15807612    -0.10100
H1436       H  0.62267376  0.67797331  0.08367605     0.09600
H1437       H  0.67111959  0.58422287  0.13223476     0.07100
H1438       H  0.57518377  0.63034528  0.17890642     0.07000
O1439       O  0.95426980  0.68604612  0.10853861    -0.77600
C1440       C  0.00001158  0.75746990  0.02663405     0.83400
O1441       O  0.57201939  0.71080030  0.15427288    -0.78700
O1442       O  0.54593534  0.83020868  0.10874264    -0.80200
O1443       O  0.92726176  0.80349735  0.15379560    -0.80000
O1444       O  0.92520185  0.71324086  0.15396970    -0.78600
Zn1445     Zn  0.99910665  0.71509209  0.09864195     1.55700
O1446       O  0.95601595  0.83102448  0.10796168    -0.80000
Cd1447     Cd  0.95686960  0.75769624  0.16425102     1.59700
Cd1448     Cd  0.54203692  0.75641269  0.16424530     1.59600
O1449       O  0.96926267  0.75752905  0.21956636    -0.80000
O1450       O  0.99965858  0.75665660  0.13087317    -1.90500
Cd1451     Cd  0.00076962  0.79980268  0.09798574     1.59900
O1452       O  0.52917590  0.75647117  0.21938256    -0.80000
O1453       O  0.00082745  0.78771950  0.04282751    -0.78600
C1454       C  0.56853066  0.68541669  0.13151856     0.83900
C1455       C  0.92808264  0.68806865  0.13084538     0.83600
O1456       O  0.99939351  0.72790975  0.04447932    -0.77600
C1457       C  0.93029791  0.82899660  0.13080312     0.84400
O1458       O  0.54263679  0.68407873  0.10903970    -0.77700
C1459       C  0.99920158  0.75705064  0.23643948     0.84500
C1460       C  0.57113519  0.82743851  0.13183466     0.84800
O1461       O  0.57323029  0.80149818  0.15441935    -0.80100
C1462       C  0.90382378  0.85723032  0.38281959     0.04000
C1463       C  0.90352814  0.88361018  0.35564304    -0.12100
C1464       C  0.87674266  0.91023716  0.35561365     0.01500
C1465       C  0.85028985  0.91049745  0.38269378    -0.10700
C1466       C  0.85057841  0.88404282  0.40975673     0.04000
C1467       C  0.87735529  0.85743634  0.40987101    -0.10100
H1468       H  0.92383970  0.88323272  0.33446386     0.09600
H1469       H  0.82933184  0.93093300  0.38246305     0.07100
H1470       H  0.87729676  0.83669185  0.43063261     0.07000
C1471       C  0.84829576  0.63186365  0.60344982     0.04000
C1472       C  0.84859825  0.60517530  0.63028047    -0.12100
C1473       C  0.87493707  0.60589817  0.65716558     0.01500
C1474       C  0.90095933  0.63317538  0.65728087    -0.10700
C1475       C  0.90069274  0.65985074  0.63047893     0.04000
C1476       C  0.87435604  0.65926520  0.60351543    -0.10100
H1477       H  0.82829386  0.58409116  0.63038618     0.09600
H1478       H  0.92134946  0.63364676  0.67817524     0.07100
H1479       H  0.87402542  0.68008260  0.58284851     0.07000
C1480       C  0.59897994  0.85516288  0.63227271     0.04000
C1481       C  0.62623117  0.85493880  0.60604889    -0.12100
C1482       C  0.65300065  0.88149975  0.60629216    -0.00300
C1483       C  0.65259752  0.90829104  0.63275017    -0.10700
C1484       C  0.62525374  0.90856667  0.65895541     0.04000
C1485       C  0.59840209  0.88199367  0.65873403    -0.10100
H1486       H  0.62653029  0.83424742  0.58545002     0.09600
H1487       H  0.67342934  0.92885082  0.63291429     0.07100
H1488       H  0.57729621  0.88208993  0.67911525     0.07000
C1489       C  0.62424937  0.60450573  0.85562931     0.04000
C1490       C  0.65101101  0.60477284  0.88209303    -0.12100
C1491       C  0.65076476  0.63151184  0.90858953     0.01500
C1492       C  0.62382577  0.65791896  0.90867521    -0.10700
C1493       C  0.59712259  0.65758689  0.88215742     0.04000
C1494       C  0.59727956  0.63089834  0.85562499    -0.10100
H1495       H  0.67191244  0.58428518  0.88206995     0.09600
H1496       H  0.62368857  0.67866234  0.92921886     0.07100
H1497       H  0.57659098  0.63073207  0.83502656     0.07000
O1498       O  0.96217680  0.50739821  0.78595883    -0.77600
C1499       C  0.87475761  0.57767919  0.82657880     0.83400
O1500       O  0.85342356  0.93367430  0.80147719    -0.78700
O1501       O  0.78714740  0.53697790  0.75636063    -0.80200
O1502       O  0.89858505  0.55315903  0.68303729    -0.80000
O1503       O  0.96405449  0.50751644  0.72612400    -0.78600
Zn1504     Zn  0.90797452  0.50784381  0.79846035     1.55700
O1505       O  0.85222211  0.58045624  0.71075225    -0.80000
Cd1506     Cd  0.90895500  0.50798019  0.71377682     1.59700
Cd1507     Cd  0.84282936  0.96467506  0.75638968     1.59600
O1508       O  0.89873833  0.96332790  0.68273299    -0.80000
O1509       O  0.87588480  0.50752263  0.75679595    -1.90500
Cd1510     Cd  0.84221441  0.54985216  0.75625552     1.59900
O1511       O  0.85313185  0.93475551  0.71070740    -0.80000
O1512       O  0.85173876  0.58056275  0.80132677    -0.78600
C1513       C  0.87598280  0.93738846  0.82703020     0.83900
C1514       C  0.98012901  0.50720401  0.75646122     0.83600
O1515       O  0.89760253  0.55202523  0.82823178    -0.77600
C1516       C  0.87524793  0.57828665  0.68520965     0.84400
O1517       O  0.89780006  0.96387022  0.82879310    -0.77700
C1518       C  0.87592538  0.93771397  0.68499136     0.84500
C1519       C  0.77034176  0.50695257  0.75662749     0.84800
O1520       O  0.78746216  0.97706534  0.75679652    -0.80100
C1521       C  0.87479609  0.60490097  0.85484822     0.04000
C1522       C  0.84793912  0.60446814  0.88157866    -0.12100
C1523       C  0.84763542  0.63098832  0.90832583     0.01500
C1524       C  0.87406172  0.65792514  0.90833190    -0.10700
C1525       C  0.90083353  0.65835787  0.88160570     0.04000
C1526       C  0.90126499  0.63183866  0.85485675    -0.10100
H1527       H  0.82728100  0.58373590  0.88144567     0.09600
H1528       H  0.87373010  0.67854195  0.92900410     0.07100
H1529       H  0.92201040  0.63222870  0.83410725     0.07000
O1530       O  0.77908665  0.54443628  0.50686845    -0.77600
C1531       C  0.81936272  0.63122177  0.93580887     0.83400
O1532       O  0.79420096  0.65435059  0.57966765    -0.78700
O1533       O  0.75012936  0.71985664  0.97672369    -0.80200
O1534       O  0.67627586  0.60860314  0.96171832    -0.80000
O1535       O  0.71923855  0.54340788  0.50683490    -0.78600
Zn1536     Zn  0.79157599  0.59876379  0.50657498     1.55700
O1537       O  0.70381487  0.65483810  0.93378464    -0.80000
Cd1538     Cd  0.70678486  0.59842655  0.50682049     1.59700
Cd1539     Cd  0.74900482  0.66428990  0.54927082     1.59600
O1540       O  0.67566282  0.60859042  0.55175662    -0.80000
O1541       O  0.74980851  0.63111816  0.50669203    -1.90500
Cd1542     Cd  0.74924033  0.66467121  0.96406527     1.59900
O1543       O  0.70352291  0.65398174  0.57999110    -0.80000
O1544       O  0.79402100  0.65423308  0.93282610    -0.78600
C1545       C  0.81996336  0.63186544  0.57628314     0.83900
C1546       C  0.74942150  0.52690085  0.50679952     0.83600
O1547       O  0.82128305  0.60881335  0.96193758    -0.77600
C1548       C  0.67848824  0.63169861  0.93624753     0.84400
O1549       O  0.82190311  0.60941578  0.55037750    -0.77700
C1550       C  0.67787588  0.63126085  0.57734667     0.84500
C1551       C  0.75015044  0.73665847  0.50670240     0.84800
O1552       O  0.74951841  0.71953694  0.53665575    -0.80100
O1553       O  0.77960849  0.96960401  0.50671242    -0.77600
C1554       C  0.82143868  0.88288052  0.57662276     0.83400
O1555       O  0.79703900  0.85993980  0.93380784    -0.78700
O1556       O  0.75089029  0.79365395  0.53673424    -0.80200
O1557       O  0.67790522  0.90407611  0.55246610    -0.80000
O1558       O  0.71977176  0.96969424  0.50651212    -0.78600
Zn1559     Zn  0.79274031  0.91554950  0.50677762     1.55700
O1560       O  0.70668383  0.85911000  0.58091199    -0.80000
Cd1561     Cd  0.70810331  0.91442207  0.50684908     1.59700
Cd1562     Cd  0.75161621  0.84924958  0.96419495     1.59600
O1563       O  0.67711992  0.90339176  0.96219667    -0.80000
O1564       O  0.75159685  0.88240759  0.50679201    -1.90500
Cd1565     Cd  0.75152031  0.84884500  0.54942530     1.59900
O1566       O  0.70637062  0.85900502  0.93349385    -0.80000
O1567       O  0.79687848  0.85898077  0.57947301    -0.78600
C1568       C  0.82207761  0.88324674  0.93697162     0.83900
C1569       C  0.74970144  0.98667670  0.50666112     0.83600
O1570       O  0.82250773  0.90591627  0.55100055    -0.77600
C1571       C  0.68082887  0.88162564  0.57841373     0.84400
O1572       O  0.82327221  0.90577507  0.96280491    -0.77700
C1573       C  0.68006863  0.88094500  0.93642579     0.84500
C1574       C  0.75088369  0.77685636  0.50675055     0.84800
O1575       O  0.75142384  0.79398320  0.97679611    -0.80100
O1576       O  0.50029930  0.78623758  0.96857826    -0.77600
C1577       C  0.57141599  0.82582242  0.88180329     0.83400
O1578       O  0.92691138  0.80312996  0.85954610    -0.78700
O1579       O  0.52926465  0.75665148  0.79338520    -0.80200
O1580       O  0.54396876  0.68337056  0.90503819    -0.80000
O1581       O  0.49897187  0.72643380  0.97023615    -0.78600
Zn1582     Zn  0.50049762  0.79899114  0.91440731     1.55700
O1583       O  0.57200374  0.71073309  0.85868374    -0.80000
Cd1584     Cd  0.49897073  0.71432617  0.91509362     1.59700
Cd1585     Cd  0.95688555  0.75757292  0.84914984     1.59600
O1586       O  0.95388935  0.68371589  0.90462373    -0.80000
O1587       O  0.49960109  0.75743525  0.88217518    -1.90500
Cd1588     Cd  0.54212478  0.75640414  0.84850787     1.59900
O1589       O  0.92593151  0.71231363  0.85927189    -0.80000
O1590       O  0.57394203  0.80074575  0.85855161    -0.78600
C1591       C  0.93078647  0.82860458  0.88214587     0.83900
C1592       C  0.49974468  0.75668249  0.98642779     0.83600
O1593       O  0.54542482  0.82790842  0.90433884    -0.77600
C1594       C  0.56943891  0.68540404  0.88190967     0.84400
O1595       O  0.95700745  0.83001172  0.90422749    -0.77700
C1596       C  0.92841599  0.68636444  0.88182248     0.84500
C1597       C  0.49925765  0.75714705  0.77664276     0.84800
O1598       O  0.96934108  0.75768702  0.79382537    -0.80100
C1599       C  0.65223569  0.88066370  0.90879004     0.04000
C1600       C  0.65201936  0.90759871  0.88222455    -0.12100
C1601       C  0.62533496  0.90757792  0.85570386     0.01500
C1602       C  0.59892436  0.88066767  0.85560495    -0.10700
C1603       C  0.59912154  0.85372294  0.88214926     0.04000
C1604       C  0.62576933  0.85367028  0.90881977    -0.10100
H1605       H  0.67251549  0.92850029  0.88220044     0.09600
H1606       H  0.57829525  0.88069319  0.83494078     0.07100
H1607       H  0.62591449  0.83278947  0.92942519     0.07000
O1608       O  0.60258495  0.96174296  0.68529059    -0.77600
C1609       C  0.52031908  0.50661625  0.75740296     0.83400
O1610       O  0.64684801  0.58018247  0.71205517    -0.78700
O1611       O  0.60170179  0.55119039  0.83044324    -0.80200
O1612       O  0.64804937  0.93331725  0.80234087    -0.80000
O1613       O  0.64849577  0.93326319  0.71217080    -0.78600
Zn1614     Zn  0.59230999  0.50604457  0.71513180     1.55700
O1615       O  0.60208760  0.96086203  0.83050182    -0.80000
Cd1616     Cd  0.65819741  0.96405757  0.75707320     1.59700
Cd1617     Cd  0.65769099  0.54914458  0.75695998     1.59600
O1618       O  0.71331187  0.97681759  0.75700461    -0.80000
O1619       O  0.62453797  0.50639318  0.75668941    -1.90500
Cd1620     Cd  0.59162063  0.50614114  0.79984152     1.59900
O1621       O  0.71304344  0.53673045  0.75653646    -0.80000
O1622       O  0.53645315  0.50643762  0.78770730    -0.78600
C1623       C  0.62391179  0.57678877  0.68680496     0.83900
C1624       C  0.62537296  0.93602317  0.68701412     0.83600
O1625       O  0.53821540  0.50634470  0.72788007    -0.77600
C1626       C  0.62515467  0.93550100  0.82798515     0.84400
O1627       O  0.60202704  0.55035234  0.68505274    -0.77700
C1628       C  0.73014255  0.50683168  0.75673004     0.84500
C1629       C  0.62450879  0.57679847  0.82794763     0.84800
O1630       O  0.64744487  0.57940355  0.80233985    -0.80100
C1631       C  0.87615689  0.91032838  0.65697952     0.04000
C1632       C  0.84954169  0.91041407  0.63031939    -0.12100
C1633       C  0.84964896  0.88366291  0.60380156     0.01500
C1634       C  0.87631961  0.85699271  0.60387090    -0.10700
C1635       C  0.90290677  0.85706877  0.63047697     0.04000
C1636       C  0.90288878  0.88370611  0.65703759    -0.10100
H1637       H  0.82871573  0.93097071  0.63039151     0.09600
H1638       H  0.87625139  0.83613391  0.58344089     0.07100
H1639       H  0.92345653  0.88360195  0.67776097     0.07000
C1640       C  0.59569789  0.65695843  0.63105503     0.04000
C1641       C  0.62263858  0.65725081  0.60445888    -0.12100
C1642       C  0.64977183  0.63102390  0.60493829     0.01500
C1643       C  0.64999004  0.60448093  0.63187419    -0.10700
C1644       C  0.62305263  0.60414684  0.65843070     0.04000
C1645       C  0.59585509  0.63037841  0.65807608    -0.10100
H1646       H  0.62267377  0.67797328  0.58367599     0.09600
H1647       H  0.67111951  0.58422290  0.63223473     0.07100
H1648       H  0.57518375  0.63034528  0.67890636     0.07000
O1649       O  0.95426982  0.68604611  0.60853860    -0.77600
C1650       C  0.00001154  0.75746998  0.52663404     0.83400
O1651       O  0.57201944  0.71080028  0.65427281    -0.78700
O1652       O  0.54593543  0.83020870  0.60874260    -0.80200
O1653       O  0.92726175  0.80349735  0.65379560    -0.80000
O1654       O  0.92520187  0.71324086  0.65396970    -0.78600
Zn1655     Zn  0.99910663  0.71509208  0.59864192     1.55700
O1656       O  0.95601591  0.83102449  0.60796170    -0.80000
Cd1657     Cd  0.95686961  0.75769622  0.66425099     1.59700
Cd1658     Cd  0.54203690  0.75641266  0.66424528     1.59600
O1659       O  0.96926280  0.75752901  0.71956625    -0.80000
O1660       O  0.99965856  0.75665656  0.63087315    -1.90500
Cd1661     Cd  0.00076962  0.79980265  0.59798572     1.59900
O1662       O  0.52917587  0.75647114  0.71938259    -0.80000
O1663       O  0.00082744  0.78771951  0.54282751    -0.78600
C1664       C  0.56853070  0.68541670  0.63151850     0.83900
C1665       C  0.92808268  0.68806863  0.63084539     0.83600
O1666       O  0.99939350  0.72790987  0.54447934    -0.77600
C1667       C  0.93029783  0.82899656  0.63080307     0.84400
O1668       O  0.54263676  0.68407874  0.60903972    -0.77700
C1669       C  0.99920162  0.75705064  0.73643948     0.84500
C1670       C  0.57113522  0.82743851  0.63183465     0.84800
O1671       O  0.57323028  0.80149816  0.65441933    -0.80100
C1672       C  0.90382380  0.85723031  0.88281959     0.04000
C1673       C  0.90352814  0.88361026  0.85564306    -0.12100
C1674       C  0.87674256  0.91023728  0.85561376     0.01500
C1675       C  0.85028982  0.91049757  0.88269383    -0.10700
C1676       C  0.85057840  0.88404289  0.90975670     0.04000
C1677       C  0.87735539  0.85743633  0.90987108    -0.10100
H1678       H  0.92383891  0.88323275  0.83446410     0.09600
H1679       H  0.82933178  0.93093336  0.88246319     0.07100
H1680       H  0.87729697  0.83669237  0.93063239     0.07000
loop_ 
_geom_bond_atom_site_label_1 
_geom_bond_atom_site_label_2 
_geom_bond_distance 
_geom_bond_site_symmetry_2 
_ccdc_geom_bond_type 
C1            C2   1.398       .  A
C1            C6   1.401       .  A
C1           C75   1.458       .  S
C2            C3   1.398       .  A
C2            H7   1.085       .  S
C3            C4   1.397       .  A
C3           C46   1.454       .  S
C4            C5   1.397       .  A
C4            H8   1.085       .  S
C5            C6   1.400       .  A
C5          C195   1.457       .  S
C6            H9   1.084       .  S
C10          C11   1.397       .  A
C10          C15   1.400       .  A
C10         C200   1.456       .  S
C11          C12   1.397       .  A
C11          H16   1.085       .  S
C12          C13   1.399       .  A
C12         C101   1.455       .  S
C13          C14   1.399       .  A
C13          H17   1.085       .  S
C14          C15   1.400       .  A
C14         C154   1.458       .  S
C15          H18   1.084       .  S
C19          C20   1.398       .  A
C19          C24   1.398       .  A
C19         C159   1.455       .  S
C20          C21   1.398       .  A
C20          H25   1.084       .  S
C21          C22   1.398       .  A
C21          C78   1.455       .  S
C22          C23   1.398       .  A
C22          H26   1.085       .  S
C23          C24   1.398       .  A
C23         C124   1.454       .  S
C24          H27   1.085       .  S
O28          C44   1.276       .  A
O28         Zn34   2.059       .  S
C29          C51   1.458       .  S
C29          O45   1.274       .  A
C29          O42   1.273       .  A
O30          C43   1.274       .  A
O30         Cd37   2.062       .  S
O31          C49   1.275       .  A
O31         Cd40   2.095       .  S
O32          C46   1.273       .  A
O32         Cd36   2.057       .  S
O33          C44   1.275       .  A
O33         Cd36   2.095       .  S
Zn34         O45   2.015       .  S
Zn34        O467   2.009   1_545  S
Zn34         O39   1.953       .  S
O35          C46   1.274       .  A
O35         Cd40   2.059       .  S
Cd36        O458   2.056   1_545  S
Cd36         O39   2.005       .  S
Cd37         O41   2.062       .  S
Cd37         O50   2.102       .  S
Cd37        O459   2.005       .  S
O38          C48   1.273       .  A
O38        Cd456   2.056       .  S
O39         Cd40   2.004       .  S
O39        Cd457   2.005   1_545  S
Cd40         O42   2.058       .  S
O41          C48   1.274       .  A
C43         C204   1.457       .  S
C43          O47   1.274       .  A
C44         C979   1.490       .  S
O47        Zn454   2.009       .  S
C48         C161   1.455       .  S
C49         C158   1.489       .  S
C49         O470   1.276   1_545  A
O50         C469   1.276       .  A
C51          C52   1.400       .  A
C51          C56   1.399       .  A
C52          C53   1.399       .  A
C52          H57   1.085       .  S
C53          C54   1.398       .  A
C53          C61   1.457       .  S
C54          C55   1.398       .  A
C54          H58   1.085       .  S
C55          C56   1.399       .  A
C55         C126   1.457       .  S
C56          H59   1.084       .  S
O60          C76   1.277       .  A
O60         Zn66   2.066       .  S
C61          O77   1.274       .  A
C61          O74   1.273       .  A
O62          C75   1.273       .  A
O62         Cd69   2.055       .  S
O63         C291   1.276       .  A
O63         Cd72   2.101       .  S
O64          C78   1.273       .  A
O64        Cd278   2.056       .  S
O65          C76   1.275       .  A
O65         Cd68   2.090       .  S
Zn66         O79   2.019       .  S
Zn66        O287   2.015   1_554  S
Zn66         O71   1.958       .  S
O67          C78   1.274       .  A
O67         Cd72   2.061       .  S
Cd68         O70   2.056       .  S
Cd68        O274   2.056   1_554  S
Cd68         O71   2.002       .  S
Cd69         O73   2.063       .  S
Cd69         O82   2.098       .  S
Cd69         O71   2.005       .  S
O70          C80   1.273       .  A
O71        Cd282   2.005   1_554  S
Cd72         O74   2.056       .  S
Cd72        O281   2.005       .  S
O73          C80   1.274       .  A
C75          O79   1.275       .  A
C76         C519   1.491   1_545  S
O77        Zn276   2.015       .  S
C80         C172   1.455       .  S
C81         C104   1.490       .  S
C81          O82   1.275       .  A
C81         O273   1.276   1_554  A
O83          C99   1.276       .  A
O83         Zn89   2.061       .  S
C84         C163   1.456       .  S
C84         O100   1.274       .  A
C84          O97   1.273       .  A
O85          C98   1.274       .  A
O85         Cd92   2.057       .  S
O86         C104   1.276       .  A
O86         Cd95   2.101       .  S
O87         C101   1.273       .  A
O87         Cd91   2.056       .  S
O88          C99   1.275       .  A
O88         Cd91   2.093       .  S
Zn89        O100   2.010       .  S
Zn89        O312   2.013   1_554  S
Zn89         O94   1.958       .  S
O90         C101   1.274       .  A
O90         Cd95   2.061       .  S
Cd91        O303   2.061   1_554  S
Cd91         O94   2.001       .  S
Cd92         O96   2.062       .  S
Cd92        O105   2.098       .  S
Cd92        O304   2.005       .  S
O93         C103   1.274       .  A
O93        Cd301   2.061       .  S
O94         Cd95   2.005       .  S
O94        Cd302   2.005   1_554  S
Cd95         O97   2.056       .  S
O96         C103   1.274       .  A
C98         C206   1.456       .  S
C98         O102   1.274       .  A
C99         C496   1.491       .  S
O102       Zn299   2.013       .  S
C103        C129   1.457       .  S
C104        O315   1.275   1_554  A
O105        C314   1.275       .  A
O106        C122   1.276   1_455  A
O106       Zn112   2.059       .  S
C107        C133   1.457       .  S
C107        O123   1.274       .  A
C107        O120   1.274       .  A
O108        C121   1.274       .  A
O108       Cd115   2.058       .  S
O109        C127   1.276   1_455  A
O109       Cd118   2.099       .  S
O110        C124   1.273       .  A
O110       Cd114   2.057   1_455  S
O111        C122   1.275       .  A
O111       Cd114   2.094       .  S
Zn112       O123   2.012       .  S
Zn112       O965   2.015   1_455  S
Zn112       O117   1.954   1_455  S
O113        C124   1.273       .  A
O113       Cd118   2.057       .  S
Cd114       O956   2.059       .  S
Cd114       O117   2.005       .  S
Cd115       O119   2.063       .  S
Cd115       O128   2.098       .  S
Cd115       O957   2.006       .  S
O116        C126   1.273       .  A
O116       Cd954   2.059       .  S
O117       Cd118   2.005   1_655  S
O117       Cd955   2.006       .  S
Cd118       O120   2.059       .  S
O119        C126   1.274       .  A
C121        C202   1.457       .  S
C121        O125   1.275       .  A
C122       C1230   1.490   1_655  S
O125       Zn952   2.015       .  S
C127       C1039   1.489       .  S
C127        O968   1.275       .  A
O128        C967   1.275       .  A
C129        C130   1.398       .  A
C129        C134   1.401       .  A
C130        C131   1.398       .  A
C130        H135   1.085       .  S
C131        C132   1.397       .  A
C131        C156   1.454       .  S
C132        C133   1.398       .  A
C132        H136   1.085       .  S
C133        C134   1.401       .  A
C134        H137   1.084       .  S
O138        C154   1.275       .  A
O138       Zn564   2.019       .  S
C139        C884   1.490   1_455  S
C139        O155   1.276       .  A
C139        O152   1.275       .  A
O140        C153   1.274       .  A
O140       Cd147   2.059       .  S
O141        C159   1.273       .  A
O141       Cd150   2.058       .  S
O142        C156   1.273       .  A
O142       Cd146   2.055       .  S
O143        C154   1.273       .  A
O143       Cd146   2.056       .  S
Zn144       O155   2.057       .  S
Zn144       O157   2.011       .  S
Zn144       O558   2.019   1_545  S
Zn144       O149   1.953       .  S
O145        C156   1.274       .  A
O145       Cd570   2.059       .  S
Cd146       O148   2.096       .  S
Cd146       O569   2.004       .  S
Cd147       O151   2.102       .  S
Cd147       O160   2.059       .  S
Cd147       O149   2.005       .  S
O148        C578   1.275       .  A
O149       Cd150   2.006       .  S
O149       Cd566   2.004   1_545  S
Cd150       O152   2.095       .  S
Cd150       O565   2.059   1_545  S
O151        C158   1.276       .  A
C153        C174   1.457       .  S
C153        O157   1.274       .  A
C158        O568   1.275   1_545  A
C159        O160   1.274       .  A
C161        C162   1.399       .  A
C161        C166   1.398       .  A
C162        C163   1.399       .  A
C162        H167   1.084       .  S
C163        C164   1.398       .  A
C164        C165   1.397       .  A
C164        H168   1.085       .  S
C165        C166   1.397       .  A
C165        C197   1.453       .  S
C166        H169   1.085       .  S
C170        C171   1.399       .  A
C170        C175   1.401       .  A
C170        C194   1.458       .  S
C171        C172   1.398       .  A
C171        H176   1.084       .  S
C172        C173   1.397       .  A
C173        C174   1.398       .  A
C173        H177   1.085       .  S
C174        C175   1.400       .  A
C175        H178   1.084       .  S
O179        C195   1.274       .  A
O179       Zn185   2.010       .  S
C180       C1172   1.490   1_554  S
C180        O196   1.277       .  A
C180        O193   1.275       .  A
O181        C194   1.273       .  A
O181       Cd188   2.057       .  S
O182        C200   1.273       .  A
O182      Cd1031   2.059       .  S
O183        C197   1.273       .  A
O183       Cd187   2.057       .  S
O184        C195   1.274       .  A
O184       Cd187   2.061       .  S
Zn185       O196   2.059       .  S
Zn185      O1038   2.018       .  S
Zn185       O190   1.954       .  S
O186        C197   1.273       .  A
O186       Cd191   2.055       .  S
Cd187       O189   2.102       .  S
Cd187       O190   2.006       .  S
Cd188       O192   2.095       .  S
Cd188       O201   2.061       .  S
Cd188      O1030   2.004   1_455  S
O189        C199   1.276       .  A
O190       Cd191   2.005       .  S
O190      Cd1028   2.004       .  S
Cd191       O193   2.094       .  S
Cd191      O1022   2.059       .  S
O192       C1039   1.275   1_455  A
C194        O198   1.275       .  A
O198      Zn1025   2.018   1_455  S
C199        C967   1.489       .  S
C199       O1032   1.275       .  A
C200        O201   1.274       .  A
C202        C203   1.400       .  A
C202        C207   1.398       .  A
C203        C204   1.399       .  A
C203        H208   1.084       .  S
C204        C205   1.399       .  A
C205        C206   1.399       .  A
C205        H209   1.085       .  S
C206        C207   1.399       .  A
C207        H210   1.085       .  S
C211        C212   1.398       .  A
C211        C216   1.401       .  A
C211        C285   1.458       .  S
C212        C213   1.398       .  A
C212        H217   1.085       .  S
C213        C214   1.397       .  A
C213        C256   1.454       .  S
C214        C215   1.397       .  A
C214        H218   1.085       .  S
C215        C216   1.400       .  A
C215        C405   1.457       .  S
C216        H219   1.084       .  S
C220        C221   1.397       .  A
C220        C225   1.400       .  A
C220        C410   1.456       .  S
C221        C222   1.397       .  A
C221        H226   1.085       .  S
C222        C223   1.399       .  A
C222        C311   1.455       .  S
C223        C224   1.399       .  A
C223        H227   1.085       .  S
C224        C225   1.400       .  A
C224        C364   1.458       .  S
C225        H228   1.084       .  S
C229        C230   1.398       .  A
C229        C234   1.398       .  A
C229        C369   1.455       .  S
C230        C231   1.398       .  A
C230        H235   1.084       .  S
C231        C232   1.398       .  A
C231        C288   1.455       .  S
C232        C233   1.398       .  A
C232        H236   1.085       .  S
C233        C234   1.398       .  A
C233        C334   1.454       .  S
C234        H237   1.085       .  S
O238        C254   1.276       .  A
O238       Zn244   2.059       .  S
C239        C261   1.458       .  S
C239        O255   1.274       .  A
C239        O252   1.273       .  A
O240        C253   1.274       .  A
O240       Cd247   2.062       .  S
O241        C259   1.275       .  A
O241       Cd250   2.095       .  S
O242        C256   1.273       .  A
O242       Cd246   2.057       .  S
O243        C254   1.275       .  A
O243       Cd246   2.095       .  S
Zn244       O255   2.015       .  S
Zn244       O677   2.009   1_545  S
Zn244       O249   1.953       .  S
O245        C256   1.274       .  A
O245       Cd250   2.059       .  S
Cd246       O668   2.056   1_545  S
Cd246       O249   2.005       .  S
Cd247       O251   2.062       .  S
Cd247       O260   2.102       .  S
Cd247       O669   2.005       .  S
O248        C258   1.273       .  A
O248       Cd666   2.056       .  S
O249       Cd667   2.005   1_545  S
O249       Cd250   2.004       .  S
Cd250       O252   2.058       .  S
O251        C258   1.274       .  A
C253        C414   1.457       .  S
C253        O257   1.274       .  A
C254       C1189   1.490       .  S
O257       Zn664   2.009       .  S
C258        C371   1.455       .  S
C259        C368   1.489       .  S
C259        O680   1.276   1_545  A
O260        C679   1.276       .  A
C261        C262   1.400       .  A
C261        C266   1.399       .  A
C262        C263   1.399       .  A
C262        H267   1.085       .  S
C263        C264   1.398       .  A
C263        C271   1.457       .  S
C264        C265   1.398       .  A
C264        H268   1.085       .  S
C265        C266   1.399       .  A
C265        C336   1.457       .  S
C266        H269   1.084       .  S
O270        C286   1.277       .  A
O270       Zn276   2.066       .  S
C271        O287   1.274       .  A
C271        O284   1.273       .  A
O272        C285   1.273       .  A
O272       Cd279   2.055       .  S
O273       Cd282   2.101       .  S
O274        C288   1.273       .  A
O275        C286   1.275       .  A
O275       Cd278   2.090       .  S
Zn276       O289   2.019       .  S
Zn276       O281   1.958       .  S
O277        C288   1.274       .  A
O277       Cd282   2.061       .  S
Cd278       O280   2.056       .  S
Cd278       O281   2.002       .  S
Cd279       O283   2.063       .  S
Cd279       O292   2.098       .  S
Cd279       O281   2.005       .  S
O280        C290   1.273       .  A
Cd282       O284   2.056       .  S
O283        C290   1.274       .  A
C285        O289   1.275       .  A
C286        C729   1.491   1_545  S
C290        C382   1.455       .  S
C291        C314   1.490       .  S
C291        O292   1.275       .  A
O293        C309   1.276       .  A
O293       Zn299   2.061       .  S
C294        C373   1.456       .  S
C294        O310   1.274       .  A
C294        O307   1.273       .  A
O295        C308   1.274       .  A
O295       Cd302   2.057       .  S
O296        C314   1.276       .  A
O296       Cd305   2.101       .  S
O297        C311   1.273       .  A
O297       Cd301   2.056       .  S
O298        C309   1.275       .  A
O298       Cd301   2.093       .  S
Zn299       O310   2.010       .  S
Zn299       O304   1.958       .  S
O300        C311   1.274       .  A
O300       Cd305   2.061       .  S
Cd301       O304   2.001       .  S
Cd302       O306   2.062       .  S
Cd302       O315   2.098       .  S
O303        C313   1.274       .  A
O304       Cd305   2.005       .  S
Cd305       O307   2.056       .  S
O306        C313   1.274       .  A
C308        C416   1.456       .  S
C308        O312   1.274       .  A
C309        C706   1.491       .  S
C313        C339   1.457       .  S
O316        C332   1.276   1_455  A
O316       Zn322   2.059       .  S
C317        C343   1.457       .  S
C317        O333   1.274       .  A
C317        O330   1.274       .  A
O318        C331   1.274       .  A
O318       Cd325   2.058       .  S
O319        C337   1.276   1_455  A
O319       Cd328   2.099       .  S
O320        C334   1.273       .  A
O320       Cd324   2.057   1_455  S
O321        C332   1.275       .  A
O321       Cd324   2.094       .  S
Zn322       O333   2.012       .  S
Zn322      O1175   2.015   1_455  S
Zn322       O327   1.954   1_455  S
O323        C334   1.273       .  A
O323       Cd328   2.057       .  S
Cd324      O1166   2.059       .  S
Cd324       O327   2.005       .  S
Cd325       O329   2.063       .  S
Cd325       O338   2.098       .  S
Cd325      O1167   2.006       .  S
O326        C336   1.273       .  A
O326      Cd1164   2.059       .  S
O327      Cd1165   2.006       .  S
O327       Cd328   2.005   1_655  S
Cd328       O330   2.059       .  S
O329        C336   1.274       .  A
C331        C412   1.457       .  S
C331        O335   1.275       .  A
C332       C1020   1.490   1_656  S
O335      Zn1162   2.015       .  S
C337       C1249   1.489       .  S
C337       O1178   1.275       .  A
O338       C1177   1.275       .  A
C339        C340   1.398       .  A
C339        C344   1.401       .  A
C340        C341   1.398       .  A
C340        H345   1.085       .  S
C341        C342   1.397       .  A
C341        C366   1.454       .  S
C342        C343   1.398       .  A
C342        H346   1.085       .  S
C343        C344   1.401       .  A
C344        H347   1.084       .  S
O348        C364   1.275       .  A
O348       Zn774   2.019       .  S
C349       C1094   1.490   1_455  S
C349        O365   1.276       .  A
C349        O362   1.275       .  A
O350        C363   1.274       .  A
O350       Cd357   2.059       .  S
O351        C369   1.273       .  A
O351       Cd360   2.058       .  S
O352        C366   1.273       .  A
O352       Cd356   2.055       .  S
O353        C364   1.273       .  A
O353       Cd356   2.056       .  S
Zn354       O768   2.019   1_545  S
Zn354       O365   2.057       .  S
Zn354       O367   2.011       .  S
Zn354       O359   1.953       .  S
O355        C366   1.274       .  A
O355       Cd780   2.059       .  S
Cd356       O358   2.096       .  S
Cd356       O779   2.004       .  S
Cd357       O361   2.102       .  S
Cd357       O370   2.059       .  S
Cd357       O359   2.005       .  S
O358        C788   1.275       .  A
O359       Cd776   2.004   1_545  S
O359       Cd360   2.006       .  S
Cd360       O775   2.059   1_545  S
Cd360       O362   2.095       .  S
O361        C368   1.276       .  A
C363        C384   1.457       .  S
C363        O367   1.274       .  A
C368        O778   1.275   1_545  A
C369        O370   1.274       .  A
C371        C372   1.399       .  A
C371        C376   1.398       .  A
C372        C373   1.399       .  A
C372        H377   1.084       .  S
C373        C374   1.398       .  A
C374        C375   1.397       .  A
C374        H378   1.085       .  S
C375        C376   1.397       .  A
C375        C407   1.453       .  S
C376        H379   1.085       .  S
C380        C381   1.399       .  A
C380        C385   1.401       .  A
C380        C404   1.458       .  S
C381        C382   1.398       .  A
C381        H386   1.084       .  S
C382        C383   1.397       .  A
C383        C384   1.398       .  A
C383        H387   1.085       .  S
C384        C385   1.400       .  A
C385        H388   1.084       .  S
O389        C405   1.274       .  A
O389       Zn395   2.010       .  S
C390        C962   1.490       .  S
C390        O406   1.277       .  A
C390        O403   1.275       .  A
O391        C404   1.273       .  A
O391       Cd398   2.057       .  S
O392        C410   1.273       .  A
O392      Cd1241   2.059       .  S
O393        C407   1.273       .  A
O393       Cd397   2.057       .  S
O394        C405   1.274       .  A
O394       Cd397   2.061       .  S
Zn395       O406   2.059       .  S
Zn395      O1248   2.018       .  S
Zn395       O400   1.954       .  S
O396        C407   1.273       .  A
O396       Cd401   2.055       .  S
Cd397       O399   2.102       .  S
Cd397       O400   2.006       .  S
Cd398       O402   2.095       .  S
Cd398       O411   2.061       .  S
Cd398      O1240   2.004   1_455  S
O399        C409   1.276       .  A
O400      Cd1238   2.004       .  S
O400       Cd401   2.005       .  S
Cd401      O1232   2.059       .  S
Cd401       O403   2.094       .  S
O402       C1249   1.275   1_455  A
C404        O408   1.275       .  A
O408      Zn1235   2.018   1_455  S
C409       C1177   1.489       .  S
C409       O1242   1.275       .  A
C410        O411   1.274       .  A
C412        C413   1.400       .  A
C412        C417   1.398       .  A
C413        C414   1.399       .  A
C413        H418   1.084       .  S
C414        C415   1.399       .  A
C415        C416   1.399       .  A
C415        H419   1.085       .  S
C416        C417   1.399       .  A
C417        H420   1.085       .  S
C421        C422   1.398       .  A
C421        C426   1.401       .  A
C421        C495   1.458       .  S
C422        C423   1.398       .  A
C422        H427   1.085       .  S
C423        C424   1.397       .  A
C423        C466   1.454       .  S
C424        C425   1.397       .  A
C424        H428   1.085       .  S
C425        C426   1.400       .  A
C425        C615   1.457       .  S
C426        H429   1.084       .  S
C430        C431   1.397       .  A
C430        C435   1.400       .  A
C430        C620   1.456       .  S
C431        C432   1.397       .  A
C431        H436   1.085       .  S
C432        C433   1.399       .  A
C432        C521   1.455       .  S
C433        C434   1.399       .  A
C433        H437   1.085       .  S
C434        C435   1.400       .  A
C434        C574   1.458       .  S
C435        H438   1.084       .  S
C439        C440   1.398       .  A
C439        C444   1.398       .  A
C439        C579   1.455       .  S
C440        C441   1.398       .  A
C440        H445   1.084       .  S
C441        C442   1.398       .  A
C441        C498   1.455       .  S
C442        C443   1.398       .  A
C442        H446   1.085       .  S
C443        C444   1.398       .  A
C443        C544   1.454       .  S
C444        H447   1.085       .  S
O448        C464   1.276       .  A
O448       Zn454   2.059       .  S
C449        C471   1.458       .  S
C449        O465   1.274       .  A
C449        O462   1.273       .  A
O450        C463   1.274       .  A
O450       Cd457   2.062       .  S
O451        C469   1.275       .  A
O451       Cd460   2.095       .  S
O452        C466   1.273       .  A
O452       Cd456   2.057       .  S
O453        C464   1.275       .  A
O453       Cd456   2.095       .  S
Zn454       O465   2.015       .  S
Zn454       O459   1.953       .  S
O455        C466   1.274       .  A
O455       Cd460   2.059       .  S
Cd456       O459   2.005       .  S
Cd457       O461   2.062       .  S
Cd457       O470   2.102       .  S
O458        C468   1.273       .  A
O459       Cd460   2.004       .  S
Cd460       O462   2.058       .  S
O461        C468   1.274       .  A
C463        C624   1.457       .  S
C463        O467   1.274       .  A
C464       C1399   1.490       .  S
C468        C581   1.455       .  S
C469        C578   1.489       .  S
C471        C472   1.400       .  A
C471        C476   1.399       .  A
C472        C473   1.399       .  A
C472        H477   1.085       .  S
C473        C474   1.398       .  A
C473        C481   1.457       .  S
C474        C475   1.398       .  A
C474        H478   1.085       .  S
C475        C476   1.399       .  A
C475        C546   1.457       .  S
C476        H479   1.084       .  S
O480        C496   1.277       .  A
O480       Zn486   2.066       .  S
C481        O497   1.274       .  A
C481        O494   1.273       .  A
O482        C495   1.273       .  A
O482       Cd489   2.055       .  S
O483        C711   1.276       .  A
O483       Cd492   2.101       .  S
O484        C498   1.273       .  A
O484       Cd698   2.056       .  S
O485        C496   1.275       .  A
O485       Cd488   2.090       .  S
Zn486       O707   2.015   1_554  S
Zn486       O499   2.019       .  S
Zn486       O491   1.958       .  S
O487        C498   1.274       .  A
O487       Cd492   2.061       .  S
Cd488       O694   2.056   1_554  S
Cd488       O490   2.056       .  S
Cd488       O491   2.002       .  S
Cd489       O493   2.063       .  S
Cd489       O502   2.098       .  S
Cd489       O491   2.005       .  S
O490        C500   1.273       .  A
O491       Cd702   2.005   1_554  S
Cd492       O494   2.056       .  S
Cd492       O701   2.005       .  S
O493        C500   1.274       .  A
C495        O499   1.275       .  A
O497       Zn696   2.015       .  S
C500        C592   1.455       .  S
C501        C524   1.490       .  S
C501        O693   1.276   1_554  A
C501        O502   1.275       .  A
O503        C519   1.276       .  A
O503       Zn509   2.061       .  S
C504        C583   1.456       .  S
C504        O520   1.274       .  A
C504        O517   1.273       .  A
O505        C518   1.274       .  A
O505       Cd512   2.057       .  S
O506        C524   1.276       .  A
O506       Cd515   2.101       .  S
O507        C521   1.273       .  A
O507       Cd511   2.056       .  S
O508        C519   1.275       .  A
O508       Cd511   2.093       .  S
Zn509       O520   2.010       .  S
Zn509       O732   2.013   1_554  S
Zn509       O514   1.958       .  S
O510        C521   1.274       .  A
O510       Cd515   2.061       .  S
Cd511       O723   2.061   1_554  S
Cd511       O514   2.001       .  S
Cd512       O516   2.062       .  S
Cd512       O525   2.098       .  S
Cd512       O724   2.005       .  S
O513        C523   1.274       .  A
O513       Cd721   2.061       .  S
O514       Cd722   2.005   1_554  S
O514       Cd515   2.005       .  S
Cd515       O517   2.056       .  S
O516        C523   1.274       .  A
C518        C626   1.456       .  S
C518        O522   1.274       .  A
O522       Zn719   2.013       .  S
C523        C549   1.457       .  S
C524        O735   1.275   1_554  A
O525        C734   1.275       .  A
O526        C542   1.276   1_455  A
O526       Zn532   2.059       .  S
C527        C553   1.457       .  S
C527        O543   1.274       .  A
C527        O540   1.274       .  A
O528        C541   1.274       .  A
O528       Cd535   2.058       .  S
O529        C547   1.276   1_455  A
O529       Cd538   2.099       .  S
O530        C544   1.273       .  A
O530       Cd534   2.057   1_455  S
O531        C542   1.275       .  A
O531       Cd534   2.094       .  S
Zn532       O543   2.012       .  S
Zn532      O1385   2.015   1_455  S
Zn532       O537   1.954   1_455  S
O533        C544   1.273       .  A
O533       Cd538   2.057       .  S
Cd534      O1376   2.059       .  S
Cd534       O537   2.005       .  S
Cd535       O539   2.063       .  S
Cd535       O548   2.098       .  S
Cd535      O1377   2.006       .  S
O536        C546   1.273       .  A
O536      Cd1374   2.059       .  S
O537      Cd1375   2.006       .  S
O537       Cd538   2.005   1_655  S
Cd538       O540   2.059       .  S
O539        C546   1.274       .  A
C541        C622   1.457       .  S
C541        O545   1.275       .  A
C542       C1650   1.490   1_655  S
O545      Zn1372   2.015       .  S
C547       C1459   1.489       .  S
C547       O1388   1.275       .  A
O548       C1387   1.275       .  A
C549        C550   1.398       .  A
C549        C554   1.401       .  A
C550        C551   1.398       .  A
C550        H555   1.085       .  S
C551        C552   1.397       .  A
C551        C576   1.454       .  S
C552        C553   1.398       .  A
C552        H556   1.085       .  S
C553        C554   1.401       .  A
C554        H557   1.084       .  S
O558        C574   1.275       .  A
C559       C1304   1.490   1_455  S
C559        O575   1.276       .  A
C559        O572   1.275       .  A
O560        C573   1.274       .  A
O560       Cd567   2.059       .  S
O561        C579   1.273       .  A
O561       Cd570   2.058       .  S
O562        C576   1.273       .  A
O562       Cd566   2.055       .  S
O563        C574   1.273       .  A
O563       Cd566   2.056       .  S
Zn564       O575   2.057       .  S
Zn564       O577   2.011       .  S
Zn564       O569   1.953       .  S
O565        C576   1.274       .  A
Cd566       O568   2.096       .  S
Cd567       O571   2.102       .  S
Cd567       O580   2.059       .  S
Cd567       O569   2.005       .  S
O569       Cd570   2.006       .  S
Cd570       O572   2.095       .  S
O571        C578   1.276       .  A
C573        C594   1.457       .  S
C573        O577   1.274       .  A
C579        O580   1.274       .  A
C581        C582   1.399       .  A
C581        C586   1.398       .  A
C582        C583   1.399       .  A
C582        H587   1.084       .  S
C583        C584   1.398       .  A
C584        C585   1.397       .  A
C584        H588   1.085       .  S
C585        C586   1.397       .  A
C585        C617   1.453       .  S
C586        H589   1.085       .  S
C590        C591   1.399       .  A
C590        C595   1.401       .  A
C590        C614   1.458       .  S
C591        C592   1.398       .  A
C591        H596   1.084       .  S
C592        C593   1.397       .  A
C593        C594   1.398       .  A
C593        H597   1.085       .  S
C594        C595   1.400       .  A
C595        H598   1.084       .  S
O599        C615   1.274       .  A
O599       Zn605   2.010       .  S
C600       C1592   1.490   1_554  S
C600        O616   1.277       .  A
C600        O613   1.275       .  A
O601        C614   1.273       .  A
O601       Cd608   2.057       .  S
O602        C620   1.273       .  A
O602      Cd1451   2.059       .  S
O603        C617   1.273       .  A
O603       Cd607   2.057       .  S
O604        C615   1.274       .  A
O604       Cd607   2.061       .  S
Zn605       O616   2.059       .  S
Zn605      O1458   2.018       .  S
Zn605       O610   1.954       .  S
O606        C617   1.273       .  A
O606       Cd611   2.055       .  S
Cd607       O609   2.102       .  S
Cd607       O610   2.006       .  S
Cd608       O612   2.095       .  S
Cd608       O621   2.061       .  S
Cd608      O1450   2.004   1_455  S
O609        C619   1.276       .  A
O610      Cd1448   2.004       .  S
O610       Cd611   2.005       .  S
Cd611      O1442   2.059       .  S
Cd611       O613   2.094       .  S
O612       C1459   1.275   1_455  A
C614        O618   1.275       .  A
O618      Zn1445   2.018   1_455  S
C619       C1387   1.489       .  S
C619       O1452   1.275       .  A
C620        O621   1.274       .  A
C622        C623   1.400       .  A
C622        C627   1.398       .  A
C623        C624   1.399       .  A
C623        H628   1.084       .  S
C624        C625   1.399       .  A
C625        C626   1.399       .  A
C625        H629   1.085       .  S
C626        C627   1.399       .  A
C627        H630   1.085       .  S
C631        C632   1.398       .  A
C631        C636   1.401       .  A
C631        C705   1.458       .  S
C632        C633   1.398       .  A
C632        H637   1.085       .  S
C633        C634   1.397       .  A
C633        C676   1.454       .  S
C634        C635   1.397       .  A
C634        H638   1.085       .  S
C635        C636   1.400       .  A
C635        C825   1.457       .  S
C636        H639   1.084       .  S
C640        C641   1.397       .  A
C640        C645   1.400       .  A
C640        C830   1.456       .  S
C641        C642   1.397       .  A
C641        H646   1.085       .  S
C642        C643   1.399       .  A
C642        C731   1.455       .  S
C643        C644   1.399       .  A
C643        H647   1.085       .  S
C644        C645   1.400       .  A
C644        C784   1.458       .  S
C645        H648   1.084       .  S
C649        C650   1.398       .  A
C649        C654   1.398       .  A
C649        C789   1.455       .  S
C650        C651   1.398       .  A
C650        H655   1.084       .  S
C651        C652   1.398       .  A
C651        C708   1.455       .  S
C652        C653   1.398       .  A
C652        H656   1.085       .  S
C653        C654   1.398       .  A
C653        C754   1.454       .  S
C654        H657   1.085       .  S
O658        C674   1.276       .  A
O658       Zn664   2.059       .  S
C659        C681   1.458       .  S
C659        O675   1.274       .  A
C659        O672   1.273       .  A
O660        C673   1.274       .  A
O660       Cd667   2.062       .  S
O661        C679   1.275       .  A
O661       Cd670   2.095       .  S
O662        C676   1.273       .  A
O662       Cd666   2.057       .  S
O663        C674   1.275       .  A
O663       Cd666   2.095       .  S
Zn664       O675   2.015       .  S
Zn664       O669   1.953       .  S
O665        C676   1.274       .  A
O665       Cd670   2.059       .  S
Cd666       O669   2.005       .  S
Cd667       O671   2.062       .  S
Cd667       O680   2.102       .  S
O668        C678   1.273       .  A
O669       Cd670   2.004       .  S
Cd670       O672   2.058       .  S
O671        C678   1.274       .  A
C673        C834   1.457       .  S
C673        O677   1.274       .  A
C674       C1609   1.490       .  S
C678        C791   1.455       .  S
C679        C788   1.489       .  S
C681        C682   1.400       .  A
C681        C686   1.399       .  A
C682        C683   1.399       .  A
C682        H687   1.085       .  S
C683        C684   1.398       .  A
C683        C691   1.457       .  S
C684        C685   1.398       .  A
C684        H688   1.085       .  S
C685        C686   1.399       .  A
C685        C756   1.457       .  S
C686        H689   1.084       .  S
O690        C706   1.277       .  A
O690       Zn696   2.066       .  S
C691        O707   1.274       .  A
C691        O704   1.273       .  A
O692        C705   1.273       .  A
O692       Cd699   2.055       .  S
O693       Cd702   2.101       .  S
O694        C708   1.273       .  A
O695        C706   1.275       .  A
O695       Cd698   2.090       .  S
Zn696       O709   2.019       .  S
Zn696       O701   1.958       .  S
O697        C708   1.274       .  A
O697       Cd702   2.061       .  S
Cd698       O700   2.056       .  S
Cd698       O701   2.002       .  S
Cd699       O703   2.063       .  S
Cd699       O712   2.098       .  S
Cd699       O701   2.005       .  S
O700        C710   1.273       .  A
Cd702       O704   2.056       .  S
O703        C710   1.274       .  A
C705        O709   1.275       .  A
C710        C802   1.455       .  S
C711        C734   1.490       .  S
C711        O712   1.275       .  A
O713        C729   1.276       .  A
O713       Zn719   2.061       .  S
C714        C793   1.456       .  S
C714        O730   1.274       .  A
C714        O727   1.273       .  A
O715        C728   1.274       .  A
O715       Cd722   2.057       .  S
O716        C734   1.276       .  A
O716       Cd725   2.101       .  S
O717        C731   1.273       .  A
O717       Cd721   2.056       .  S
O718        C729   1.275       .  A
O718       Cd721   2.093       .  S
Zn719       O730   2.010       .  S
Zn719       O724   1.958       .  S
O720        C731   1.274       .  A
O720       Cd725   2.061       .  S
Cd721       O724   2.001       .  S
Cd722       O726   2.062       .  S
Cd722       O735   2.098       .  S
O723        C733   1.274       .  A
O724       Cd725   2.005       .  S
Cd725       O727   2.056       .  S
O726        C733   1.274       .  A
C728        C836   1.456       .  S
C728        O732   1.274       .  A
C733        C759   1.457       .  S
O736        C752   1.276   1_455  A
O736       Zn742   2.059       .  S
C737        C763   1.457       .  S
C737        O753   1.274       .  A
C737        O750   1.274       .  A
O738        C751   1.274       .  A
O738       Cd745   2.058       .  S
O739        C757   1.276   1_455  A
O739       Cd748   2.099       .  S
O740        C754   1.273       .  A
O740       Cd744   2.057   1_455  S
O741        C752   1.275       .  A
O741       Cd744   2.094       .  S
Zn742       O753   2.012       .  S
Zn742      O1595   2.015   1_455  S
Zn742       O747   1.954   1_455  S
O743        C754   1.273       .  A
O743       Cd748   2.057       .  S
Cd744      O1586   2.059       .  S
Cd744       O747   2.005       .  S
Cd745       O749   2.063       .  S
Cd745       O758   2.098       .  S
Cd745      O1587   2.006       .  S
O746        C756   1.273       .  A
O746      Cd1584   2.059       .  S
O747      Cd1585   2.006       .  S
O747       Cd748   2.005   1_655  S
Cd748       O750   2.059       .  S
O749        C756   1.274       .  A
C751        C832   1.457       .  S
C751        O755   1.275       .  A
C752       C1440   1.490   1_656  S
O755      Zn1582   2.015       .  S
C757       C1669   1.489       .  S
C757       O1598   1.275       .  A
O758       C1597   1.275       .  A
C759        C760   1.398       .  A
C759        C764   1.401       .  A
C760        C761   1.398       .  A
C760        H765   1.085       .  S
C761        C762   1.397       .  A
C761        C786   1.454       .  S
C762        C763   1.398       .  A
C762        H766   1.085       .  S
C763        C764   1.401       .  A
C764        H767   1.084       .  S
O768        C784   1.275       .  A
C769       C1514   1.490   1_455  S
C769        O785   1.276       .  A
C769        O782   1.275       .  A
O770        C783   1.274       .  A
O770       Cd777   2.059       .  S
O771        C789   1.273       .  A
O771       Cd780   2.058       .  S
O772        C786   1.273       .  A
O772       Cd776   2.055       .  S
O773        C784   1.273       .  A
O773       Cd776   2.056       .  S
Zn774       O785   2.057       .  S
Zn774       O787   2.011       .  S
Zn774       O779   1.953       .  S
O775        C786   1.274       .  A
Cd776       O778   2.096       .  S
Cd777       O781   2.102       .  S
Cd777       O790   2.059       .  S
Cd777       O779   2.005       .  S
O779       Cd780   2.006       .  S
Cd780       O782   2.095       .  S
O781        C788   1.276       .  A
C783        C804   1.457       .  S
C783        O787   1.274       .  A
C789        O790   1.274       .  A
C791        C792   1.399       .  A
C791        C796   1.398       .  A
C792        C793   1.399       .  A
C792        H797   1.084       .  S
C793        C794   1.398       .  A
C794        C795   1.397       .  A
C794        H798   1.085       .  S
C795        C796   1.397       .  A
C795        C827   1.453       .  S
C796        H799   1.085       .  S
C800        C801   1.399       .  A
C800        C805   1.401       .  A
C800        C824   1.458       .  S
C801        C802   1.398       .  A
C801        H806   1.084       .  S
C802        C803   1.397       .  A
C803        C804   1.398       .  A
C803        H807   1.085       .  S
C804        C805   1.400       .  A
C805        H808   1.084       .  S
O809        C825   1.274       .  A
O809       Zn815   2.010       .  S
C810       C1382   1.490       .  S
C810        O826   1.277       .  A
C810        O823   1.275       .  A
O811        C824   1.273       .  A
O811       Cd818   2.057       .  S
O812        C830   1.273       .  A
O812      Cd1661   2.059       .  S
O813        C827   1.273       .  A
O813       Cd817   2.057       .  S
O814        C825   1.274       .  A
O814       Cd817   2.061       .  S
Zn815       O826   2.059       .  S
Zn815      O1668   2.018       .  S
Zn815       O820   1.954       .  S
O816        C827   1.273       .  A
O816       Cd821   2.055       .  S
Cd817       O819   2.102       .  S
Cd817       O820   2.006       .  S
Cd818       O822   2.095       .  S
Cd818       O831   2.061       .  S
Cd818      O1660   2.004   1_455  S
O819        C829   1.276       .  A
O820      Cd1658   2.004       .  S
O820       Cd821   2.005       .  S
Cd821      O1652   2.059       .  S
Cd821       O823   2.094       .  S
O822       C1669   1.275   1_455  A
C824        O828   1.275       .  A
O828      Zn1655   2.018   1_455  S
C829       C1597   1.489       .  S
C829       O1662   1.275       .  A
C830        O831   1.274       .  A
C832        C833   1.400       .  A
C832        C837   1.398       .  A
C833        C834   1.399       .  A
C833        H838   1.084       .  S
C834        C835   1.399       .  A
C835        C836   1.399       .  A
C835        H839   1.085       .  S
C836        C837   1.399       .  A
C837        H840   1.085       .  S
C841        C842   1.398       .  A
C841        C846   1.401       .  A
C841        C915   1.458       .  S
C842        C843   1.398       .  A
C842        H847   1.085       .  S
C843        C844   1.397       .  A
C843        C886   1.454       .  S
C844        C845   1.397       .  A
C844        H848   1.085       .  S
C845        C846   1.400       .  A
C845       C1035   1.457       .  S
C846        H849   1.084       .  S
C850        C851   1.397       .  A
C850        C855   1.400       .  A
C850       C1040   1.456       .  S
C851        C852   1.397       .  A
C851        H856   1.085       .  S
C852        C853   1.399       .  A
C852        C941   1.455       .  S
C853        C854   1.399       .  A
C853        H857   1.085       .  S
C854        C855   1.400       .  A
C854        C994   1.458       .  S
C855        H858   1.084       .  S
C859        C860   1.398       .  A
C859        C864   1.398       .  A
C859        C999   1.455       .  S
C860        C861   1.398       .  A
C860        H865   1.084       .  S
C861        C862   1.398       .  A
C861        C918   1.455       .  S
C862        C863   1.398       .  A
C862        H866   1.085       .  S
C863        C864   1.398       .  A
C863        C964   1.454       .  S
C864        H867   1.085       .  S
O868        C884   1.276       .  A
O868       Zn874   2.059       .  S
C869        C891   1.458       .  S
C869        O885   1.274       .  A
C869        O882   1.273       .  A
O870        C883   1.274       .  A
O870       Cd877   2.062       .  S
O871        C889   1.275       .  A
O871       Cd880   2.095       .  S
O872        C886   1.273       .  A
O872       Cd876   2.057       .  S
O873        C884   1.275       .  A
O873       Cd876   2.095       .  S
Zn874       O885   2.015       .  S
Zn874      O1307   2.009   1_545  S
Zn874       O879   1.953       .  S
O875        C886   1.274       .  A
O875       Cd880   2.059       .  S
Cd876      O1298   2.056   1_545  S
Cd876       O879   2.005       .  S
Cd877       O881   2.062       .  S
Cd877       O890   2.102       .  S
Cd877      O1299   2.005       .  S
O878        C888   1.273       .  A
O878      Cd1296   2.056       .  S
O879      Cd1297   2.005   1_545  S
O879       Cd880   2.004       .  S
Cd880       O882   2.058       .  S
O881        C888   1.274       .  A
C883       C1044   1.457       .  S
C883        O887   1.274       .  A
O887      Zn1294   2.009       .  S
C888       C1001   1.455       .  S
C889        C998   1.489       .  S
C889       O1310   1.276   1_545  A
O890       C1309   1.276       .  A
C891        C892   1.400       .  A
C891        C896   1.399       .  A
C892        C893   1.399       .  A
C892        H897   1.085       .  S
C893        C894   1.398       .  A
C893        C901   1.457       .  S
C894        C895   1.398       .  A
C894        H898   1.085       .  S
C895        C896   1.399       .  A
C895        C966   1.457       .  S
C896        H899   1.084       .  S
O900        C916   1.277       .  A
O900       Zn906   2.066       .  S
C901        O917   1.274       .  A
C901        O914   1.273       .  A
O902        C915   1.273       .  A
O902       Cd909   2.055       .  S
O903       C1131   1.276       .  A
O903       Cd912   2.101       .  S
O904        C918   1.273       .  A
O904      Cd1118   2.056       .  S
O905        C916   1.275       .  A
O905       Cd908   2.090       .  S
Zn906      O1127   2.015   1_554  S
Zn906       O919   2.019       .  S
Zn906       O911   1.958       .  S
O907        C918   1.274       .  A
O907       Cd912   2.061       .  S
Cd908      O1114   2.056   1_554  S
Cd908       O910   2.056       .  S
Cd908       O911   2.002       .  S
Cd909       O913   2.063       .  S
Cd909       O922   2.098       .  S
Cd909       O911   2.005       .  S
O910        C920   1.273       .  A
O911      Cd1122   2.005   1_554  S
Cd912       O914   2.056       .  S
Cd912      O1121   2.005       .  S
O913        C920   1.274       .  A
C915        O919   1.275       .  A
C916       C1359   1.491   1_545  S
O917      Zn1116   2.015       .  S
C920       C1012   1.455       .  S
C921        C944   1.490       .  S
C921       O1113   1.276   1_554  A
C921        O922   1.275       .  A
O923        C939   1.276       .  A
O923       Zn929   2.061       .  S
C924       C1003   1.456       .  S
C924        O940   1.274       .  A
C924        O937   1.273       .  A
O925        C938   1.274       .  A
O925       Cd932   2.057       .  S
O926        C944   1.276       .  A
O926       Cd935   2.101       .  S
O927        C941   1.273       .  A
O927       Cd931   2.056       .  S
O928        C939   1.275       .  A
O928       Cd931   2.093       .  S
Zn929       O940   2.010       .  S
Zn929      O1152   2.013   1_554  S
Zn929       O934   1.958       .  S
O930        C941   1.274       .  A
O930       Cd935   2.061       .  S
Cd931      O1143   2.061   1_554  S
Cd931       O934   2.001       .  S
Cd932       O936   2.062       .  S
Cd932       O945   2.098       .  S
Cd932      O1144   2.005       .  S
O933        C943   1.274       .  A
O933      Cd1141   2.061       .  S
O934      Cd1142   2.005   1_554  S
O934       Cd935   2.005       .  S
Cd935       O937   2.056       .  S
O936        C943   1.274       .  A
C938       C1046   1.456       .  S
C938        O942   1.274       .  A
C939       C1336   1.491       .  S
O942      Zn1139   2.013       .  S
C943        C969   1.457       .  S
C944       O1155   1.275   1_554  A
O945       C1154   1.275       .  A
O946        C962   1.276       .  A
O946       Zn952   2.059       .  S
C947        C973   1.457       .  S
C947        O963   1.274       .  A
C947        O960   1.274       .  A
O948        C961   1.274       .  A
O948       Cd955   2.058       .  S
O949        C967   1.276       .  A
O949       Cd958   2.099       .  S
O950        C964   1.273       .  A
O950       Cd954   2.057       .  S
O951        C962   1.275       .  A
O951       Cd954   2.094       .  S
Zn952       O963   2.012       .  S
Zn952       O957   1.954       .  S
O953        C964   1.273       .  A
O953       Cd958   2.057       .  S
Cd954       O957   2.005       .  S
Cd955       O959   2.063       .  S
Cd955       O968   2.098       .  S
O956        C966   1.273       .  A
O957       Cd958   2.005       .  S
Cd958       O960   2.059       .  S
O959        C966   1.274       .  A
C961       C1042   1.457       .  S
C961        O965   1.275       .  A
C969        C970   1.398       .  A
C969        C974   1.401       .  A
C970        C971   1.398       .  A
C970        H975   1.085       .  S
C971        C972   1.397       .  A
C971        C996   1.454       .  S
C972        C973   1.398       .  A
C972        H976   1.085       .  S
C973        C974   1.401       .  A
C974        H977   1.084       .  S
O978        C994   1.275       .  A
O978      Zn1404   2.019       .  S
C979        O995   1.276       .  A
C979        O992   1.275       .  A
O980        C993   1.274       .  A
O980       Cd987   2.059       .  S
O981        C999   1.273       .  A
O981       Cd990   2.058       .  S
O982        C996   1.273       .  A
O982       Cd986   2.055       .  S
O983        C994   1.273       .  A
O983       Cd986   2.056       .  S
Zn984      O1398   2.019   1_545  S
Zn984       O995   2.057       .  S
Zn984       O997   2.011       .  S
Zn984       O989   1.953       .  S
O985        C996   1.274       .  A
O985      Cd1410   2.059       .  S
Cd986       O988   2.096       .  S
Cd986      O1409   2.004       .  S
Cd987       O991   2.102       .  S
Cd987      O1000   2.059       .  S
Cd987       O989   2.005       .  S
O988       C1418   1.275       .  A
O989      Cd1406   2.004   1_545  S
O989       Cd990   2.006       .  S
Cd990      O1405   2.059   1_545  S
Cd990       O992   2.095       .  S
O991        C998   1.276       .  A
C993       C1014   1.457       .  S
C993        O997   1.274       .  A
C998       O1408   1.275   1_545  A
C999       O1000   1.274       .  A
C1001      C1002   1.399       .  A
C1001      C1006   1.398       .  A
C1002      C1003   1.399       .  A
C1002      H1007   1.084       .  S
C1003      C1004   1.398       .  A
C1004      C1005   1.397       .  A
C1004      H1008   1.085       .  S
C1005      C1006   1.397       .  A
C1005      C1037   1.453       .  S
C1006      H1009   1.085       .  S
C1010      C1011   1.399       .  A
C1010      C1015   1.401       .  A
C1010      C1034   1.458       .  S
C1011      C1012   1.398       .  A
C1011      H1016   1.084       .  S
C1012      C1013   1.397       .  A
C1013      C1014   1.398       .  A
C1013      H1017   1.085       .  S
C1014      C1015   1.400       .  A
C1015      H1018   1.084       .  S
O1019      C1035   1.274       .  A
O1019     Zn1025   2.010       .  S
C1020      O1036   1.277   1_455  A
C1020      O1033   1.275       .  A
O1021      C1034   1.273       .  A
O1021     Cd1028   2.057       .  S
O1022      C1040   1.273       .  A
O1023      C1037   1.273       .  A
O1023     Cd1027   2.057       .  S
O1024      C1035   1.274       .  A
O1024     Cd1027   2.061       .  S
Zn1025     O1036   2.059       .  S
Zn1025     O1030   1.954       .  S
O1026      C1037   1.273       .  A
O1026     Cd1031   2.055   1_655  S
Cd1027     O1029   2.102       .  S
Cd1027     O1030   2.006       .  S
Cd1028     O1032   2.095       .  S
Cd1028     O1041   2.061       .  S
O1029      C1039   1.276       .  A
O1030     Cd1031   2.005   1_655  S
Cd1031     O1033   2.094       .  S
C1034      O1038   1.275       .  A
C1040      O1041   1.274       .  A
C1042      C1043   1.400       .  A
C1042      C1047   1.398       .  A
C1043      C1044   1.399       .  A
C1043      H1048   1.084       .  S
C1044      C1045   1.399       .  A
C1045      C1046   1.399       .  A
C1045      H1049   1.085       .  S
C1046      C1047   1.399       .  A
C1047      H1050   1.085       .  S
C1051      C1052   1.398       .  A
C1051      C1056   1.401       .  A
C1051      C1125   1.458       .  S
C1052      C1053   1.398       .  A
C1052      H1057   1.085       .  S
C1053      C1054   1.397       .  A
C1053      C1096   1.454       .  S
C1054      C1055   1.397       .  A
C1054      H1058   1.085       .  S
C1055      C1056   1.400       .  A
C1055      C1245   1.457       .  S
C1056      H1059   1.084       .  S
C1060      C1061   1.397       .  A
C1060      C1065   1.400       .  A
C1060      C1250   1.456       .  S
C1061      C1062   1.397       .  A
C1061      H1066   1.085       .  S
C1062      C1063   1.399       .  A
C1062      C1151   1.455       .  S
C1063      C1064   1.399       .  A
C1063      H1067   1.085       .  S
C1064      C1065   1.400       .  A
C1064      C1204   1.458       .  S
C1065      H1068   1.084       .  S
C1069      C1070   1.398       .  A
C1069      C1074   1.398       .  A
C1069      C1209   1.455       .  S
C1070      C1071   1.398       .  A
C1070      H1075   1.084       .  S
C1071      C1072   1.398       .  A
C1071      C1128   1.455       .  S
C1072      C1073   1.398       .  A
C1072      H1076   1.085       .  S
C1073      C1074   1.398       .  A
C1073      C1174   1.454       .  S
C1074      H1077   1.085       .  S
O1078      C1094   1.276       .  A
O1078     Zn1084   2.059       .  S
C1079      C1101   1.458       .  S
C1079      O1095   1.274       .  A
C1079      O1092   1.273       .  A
O1080      C1093   1.274       .  A
O1080     Cd1087   2.062       .  S
O1081      C1099   1.275       .  A
O1081     Cd1090   2.095       .  S
O1082      C1096   1.273       .  A
O1082     Cd1086   2.057       .  S
O1083      C1094   1.275       .  A
O1083     Cd1086   2.095       .  S
Zn1084     O1095   2.015       .  S
Zn1084     O1517   2.009   1_545  S
Zn1084     O1089   1.953       .  S
O1085      C1096   1.274       .  A
O1085     Cd1090   2.059       .  S
Cd1086     O1508   2.056   1_545  S
Cd1086     O1089   2.005       .  S
Cd1087     O1091   2.062       .  S
Cd1087     O1100   2.102       .  S
Cd1087     O1509   2.005       .  S
O1088      C1098   1.273       .  A
O1088     Cd1506   2.056       .  S
O1089     Cd1507   2.005   1_545  S
O1089     Cd1090   2.004       .  S
Cd1090     O1092   2.058       .  S
O1091      C1098   1.274       .  A
C1093      C1254   1.457       .  S
C1093      O1097   1.274       .  A
O1097     Zn1504   2.009       .  S
C1098      C1211   1.455       .  S
C1099      C1208   1.489       .  S
C1099      O1520   1.276   1_545  A
O1100      C1519   1.276       .  A
C1101      C1102   1.400       .  A
C1101      C1106   1.399       .  A
C1102      C1103   1.399       .  A
C1102      H1107   1.085       .  S
C1103      C1104   1.398       .  A
C1103      C1111   1.457       .  S
C1104      C1105   1.398       .  A
C1104      H1108   1.085       .  S
C1105      C1106   1.399       .  A
C1105      C1176   1.457       .  S
C1106      H1109   1.084       .  S
O1110      C1126   1.277       .  A
O1110     Zn1116   2.066       .  S
C1111      O1127   1.274       .  A
C1111      O1124   1.273       .  A
O1112      C1125   1.273       .  A
O1112     Cd1119   2.055       .  S
O1113     Cd1122   2.101       .  S
O1114      C1128   1.273       .  A
O1115      C1126   1.275       .  A
O1115     Cd1118   2.090       .  S
Zn1116     O1129   2.019       .  S
Zn1116     O1121   1.958       .  S
O1117      C1128   1.274       .  A
O1117     Cd1122   2.061       .  S
Cd1118     O1120   2.056       .  S
Cd1118     O1121   2.002       .  S
Cd1119     O1123   2.063       .  S
Cd1119     O1132   2.098       .  S
Cd1119     O1121   2.005       .  S
O1120      C1130   1.273       .  A
Cd1122     O1124   2.056       .  S
O1123      C1130   1.274       .  A
C1125      O1129   1.275       .  A
C1126      C1569   1.491   1_545  S
C1130      C1222   1.455       .  S
C1131      C1154   1.490       .  S
C1131      O1132   1.275       .  A
O1133      C1149   1.276       .  A
O1133     Zn1139   2.061       .  S
C1134      C1213   1.456       .  S
C1134      O1150   1.274       .  A
C1134      O1147   1.273       .  A
O1135      C1148   1.274       .  A
O1135     Cd1142   2.057       .  S
O1136      C1154   1.276       .  A
O1136     Cd1145   2.101       .  S
O1137      C1151   1.273       .  A
O1137     Cd1141   2.056       .  S
O1138      C1149   1.275       .  A
O1138     Cd1141   2.093       .  S
Zn1139     O1150   2.010       .  S
Zn1139     O1144   1.958       .  S
O1140      C1151   1.274       .  A
O1140     Cd1145   2.061       .  S
Cd1141     O1144   2.001       .  S
Cd1142     O1146   2.062       .  S
Cd1142     O1155   2.098       .  S
O1143      C1153   1.274       .  A
O1144     Cd1145   2.005       .  S
Cd1145     O1147   2.056       .  S
O1146      C1153   1.274       .  A
C1148      C1256   1.456       .  S
C1148      O1152   1.274       .  A
C1149      C1546   1.491       .  S
C1153      C1179   1.457       .  S
O1156      C1172   1.276       .  A
O1156     Zn1162   2.059       .  S
C1157      C1183   1.457       .  S
C1157      O1173   1.274       .  A
C1157      O1170   1.274       .  A
O1158      C1171   1.274       .  A
O1158     Cd1165   2.058       .  S
O1159      C1177   1.276       .  A
O1159     Cd1168   2.099       .  S
O1160      C1174   1.273       .  A
O1160     Cd1164   2.057       .  S
O1161      C1172   1.275       .  A
O1161     Cd1164   2.094       .  S
Zn1162     O1173   2.012       .  S
Zn1162     O1167   1.954       .  S
O1163      C1174   1.273       .  A
O1163     Cd1168   2.057       .  S
Cd1164     O1167   2.005       .  S
Cd1165     O1169   2.063       .  S
Cd1165     O1178   2.098       .  S
O1166      C1176   1.273       .  A
O1167     Cd1168   2.005       .  S
Cd1168     O1170   2.059       .  S
O1169      C1176   1.274       .  A
C1171      C1252   1.457       .  S
C1171      O1175   1.275       .  A
C1179      C1180   1.398       .  A
C1179      C1184   1.401       .  A
C1180      C1181   1.398       .  A
C1180      H1185   1.085       .  S
C1181      C1182   1.397       .  A
C1181      C1206   1.454       .  S
C1182      C1183   1.398       .  A
C1182      H1186   1.085       .  S
C1183      C1184   1.401       .  A
C1184      H1187   1.084       .  S
O1188      C1204   1.275       .  A
O1188     Zn1614   2.019       .  S
C1189      O1205   1.276       .  A
C1189      O1202   1.275       .  A
O1190      C1203   1.274       .  A
O1190     Cd1197   2.059       .  S
O1191      C1209   1.273       .  A
O1191     Cd1200   2.058       .  S
O1192      C1206   1.273       .  A
O1192     Cd1196   2.055       .  S
O1193      C1204   1.273       .  A
O1193     Cd1196   2.056       .  S
Zn1194     O1608   2.019   1_545  S
Zn1194     O1205   2.057       .  S
Zn1194     O1207   2.011       .  S
Zn1194     O1199   1.953       .  S
O1195      C1206   1.274       .  A
O1195     Cd1620   2.059       .  S
Cd1196     O1198   2.096       .  S
Cd1196     O1619   2.004       .  S
Cd1197     O1201   2.102       .  S
Cd1197     O1210   2.059       .  S
Cd1197     O1199   2.005       .  S
O1198      C1628   1.275       .  A
O1199     Cd1616   2.004   1_545  S
O1199     Cd1200   2.006       .  S
Cd1200     O1615   2.059   1_545  S
Cd1200     O1202   2.095       .  S
O1201      C1208   1.276       .  A
C1203      C1224   1.457       .  S
C1203      O1207   1.274       .  A
C1208      O1618   1.275   1_545  A
C1209      O1210   1.274       .  A
C1211      C1212   1.399       .  A
C1211      C1216   1.398       .  A
C1212      C1213   1.399       .  A
C1212      H1217   1.084       .  S
C1213      C1214   1.398       .  A
C1214      C1215   1.397       .  A
C1214      H1218   1.085       .  S
C1215      C1216   1.397       .  A
C1215      C1247   1.453       .  S
C1216      H1219   1.085       .  S
C1220      C1221   1.399       .  A
C1220      C1225   1.401       .  A
C1220      C1244   1.458       .  S
C1221      C1222   1.398       .  A
C1221      H1226   1.084       .  S
C1222      C1223   1.397       .  A
C1223      C1224   1.398       .  A
C1223      H1227   1.085       .  S
C1224      C1225   1.400       .  A
C1225      H1228   1.084       .  S
O1229      C1245   1.274       .  A
O1229     Zn1235   2.010       .  S
C1230      O1246   1.277   1_455  A
C1230      O1243   1.275       .  A
O1231      C1244   1.273       .  A
O1231     Cd1238   2.057       .  S
O1232      C1250   1.273       .  A
O1233      C1247   1.273       .  A
O1233     Cd1237   2.057       .  S
O1234      C1245   1.274       .  A
O1234     Cd1237   2.061       .  S
Zn1235     O1246   2.059       .  S
Zn1235     O1240   1.954       .  S
O1236      C1247   1.273       .  A
O1236     Cd1241   2.055   1_655  S
Cd1237     O1239   2.102       .  S
Cd1237     O1240   2.006       .  S
Cd1238     O1242   2.095       .  S
Cd1238     O1251   2.061       .  S
O1239      C1249   1.276       .  A
O1240     Cd1241   2.005   1_655  S
Cd1241     O1243   2.094       .  S
C1244      O1248   1.275       .  A
C1250      O1251   1.274       .  A
C1252      C1253   1.400       .  A
C1252      C1257   1.398       .  A
C1253      C1254   1.399       .  A
C1253      H1258   1.084       .  S
C1254      C1255   1.399       .  A
C1255      C1256   1.399       .  A
C1255      H1259   1.085       .  S
C1256      C1257   1.399       .  A
C1257      H1260   1.085       .  S
C1261      C1262   1.398       .  A
C1261      C1266   1.401       .  A
C1261      C1335   1.458       .  S
C1262      C1263   1.398       .  A
C1262      H1267   1.085       .  S
C1263      C1264   1.397       .  A
C1263      C1306   1.454       .  S
C1264      C1265   1.397       .  A
C1264      H1268   1.085       .  S
C1265      C1266   1.400       .  A
C1265      C1455   1.457       .  S
C1266      H1269   1.084       .  S
C1270      C1271   1.397       .  A
C1270      C1275   1.400       .  A
C1270      C1460   1.456       .  S
C1271      C1272   1.397       .  A
C1271      H1276   1.085       .  S
C1272      C1273   1.399       .  A
C1272      C1361   1.455       .  S
C1273      C1274   1.399       .  A
C1273      H1277   1.085       .  S
C1274      C1275   1.400       .  A
C1274      C1414   1.458       .  S
C1275      H1278   1.084       .  S
C1279      C1280   1.398       .  A
C1279      C1284   1.398       .  A
C1279      C1419   1.455       .  S
C1280      C1281   1.398       .  A
C1280      H1285   1.084       .  S
C1281      C1282   1.398       .  A
C1281      C1338   1.455       .  S
C1282      C1283   1.398       .  A
C1282      H1286   1.085       .  S
C1283      C1284   1.398       .  A
C1283      C1384   1.454       .  S
C1284      H1287   1.085       .  S
O1288      C1304   1.276       .  A
O1288     Zn1294   2.059       .  S
C1289      C1311   1.458       .  S
C1289      O1305   1.274       .  A
C1289      O1302   1.273       .  A
O1290      C1303   1.274       .  A
O1290     Cd1297   2.062       .  S
O1291      C1309   1.275       .  A
O1291     Cd1300   2.095       .  S
O1292      C1306   1.273       .  A
O1292     Cd1296   2.057       .  S
O1293      C1304   1.275       .  A
O1293     Cd1296   2.095       .  S
Zn1294     O1305   2.015       .  S
Zn1294     O1299   1.953       .  S
O1295      C1306   1.274       .  A
O1295     Cd1300   2.059       .  S
Cd1296     O1299   2.005       .  S
Cd1297     O1301   2.062       .  S
Cd1297     O1310   2.102       .  S
O1298      C1308   1.273       .  A
O1299     Cd1300   2.004       .  S
Cd1300     O1302   2.058       .  S
O1301      C1308   1.274       .  A
C1303      C1464   1.457       .  S
C1303      O1307   1.274       .  A
C1308      C1421   1.455       .  S
C1309      C1418   1.489       .  S
C1311      C1312   1.400       .  A
C1311      C1316   1.399       .  A
C1312      C1313   1.399       .  A
C1312      H1317   1.085       .  S
C1313      C1314   1.398       .  A
C1313      C1321   1.457       .  S
C1314      C1315   1.398       .  A
C1314      H1318   1.085       .  S
C1315      C1316   1.399       .  A
C1315      C1386   1.457       .  S
C1316      H1319   1.084       .  S
O1320      C1336   1.277       .  A
O1320     Zn1326   2.066       .  S
C1321      O1337   1.274       .  A
C1321      O1334   1.273       .  A
O1322      C1335   1.273       .  A
O1322     Cd1329   2.055       .  S
O1323      C1551   1.276       .  A
O1323     Cd1332   2.101       .  S
O1324      C1338   1.273       .  A
O1324     Cd1538   2.056       .  S
O1325      C1336   1.275       .  A
O1325     Cd1328   2.090       .  S
Zn1326     O1547   2.015   1_554  S
Zn1326     O1339   2.019       .  S
Zn1326     O1331   1.958       .  S
O1327      C1338   1.274       .  A
O1327     Cd1332   2.061       .  S
Cd1328     O1534   2.056   1_554  S
Cd1328     O1330   2.056       .  S
Cd1328     O1331   2.002       .  S
Cd1329     O1333   2.063       .  S
Cd1329     O1342   2.098       .  S
Cd1329     O1331   2.005       .  S
O1330      C1340   1.273       .  A
O1331     Cd1542   2.005   1_554  S
Cd1332     O1334   2.056       .  S
Cd1332     O1541   2.005       .  S
O1333      C1340   1.274       .  A
C1335      O1339   1.275       .  A
O1337     Zn1536   2.015       .  S
C1340      C1432   1.455       .  S
C1341      C1364   1.490       .  S
C1341      O1533   1.276   1_554  A
C1341      O1342   1.275       .  A
O1343      C1359   1.276       .  A
O1343     Zn1349   2.061       .  S
C1344      C1423   1.456       .  S
C1344      O1360   1.274       .  A
C1344      O1357   1.273       .  A
O1345      C1358   1.274       .  A
O1345     Cd1352   2.057       .  S
O1346      C1364   1.276       .  A
O1346     Cd1355   2.101       .  S
O1347      C1361   1.273       .  A
O1347     Cd1351   2.056       .  S
O1348      C1359   1.275       .  A
O1348     Cd1351   2.093       .  S
Zn1349     O1360   2.010       .  S
Zn1349     O1572   2.013   1_554  S
Zn1349     O1354   1.958       .  S
O1350      C1361   1.274       .  A
O1350     Cd1355   2.061       .  S
Cd1351     O1563   2.061   1_554  S
Cd1351     O1354   2.001       .  S
Cd1352     O1356   2.062       .  S
Cd1352     O1365   2.098       .  S
Cd1352     O1564   2.005       .  S
O1353      C1363   1.274       .  A
O1353     Cd1561   2.061       .  S
O1354     Cd1562   2.005   1_554  S
O1354     Cd1355   2.005       .  S
Cd1355     O1357   2.056       .  S
O1356      C1363   1.274       .  A
C1358      C1466   1.456       .  S
C1358      O1362   1.274       .  A
O1362     Zn1559   2.013       .  S
C1363      C1389   1.457       .  S
C1364      O1575   1.275   1_554  A
O1365      C1574   1.275       .  A
O1366      C1382   1.276       .  A
O1366     Zn1372   2.059       .  S
C1367      C1393   1.457       .  S
C1367      O1383   1.274       .  A
C1367      O1380   1.274       .  A
O1368      C1381   1.274       .  A
O1368     Cd1375   2.058       .  S
O1369      C1387   1.276       .  A
O1369     Cd1378   2.099       .  S
O1370      C1384   1.273       .  A
O1370     Cd1374   2.057       .  S
O1371      C1382   1.275       .  A
O1371     Cd1374   2.094       .  S
Zn1372     O1383   2.012       .  S
Zn1372     O1377   1.954       .  S
O1373      C1384   1.273       .  A
O1373     Cd1378   2.057       .  S
Cd1374     O1377   2.005       .  S
Cd1375     O1379   2.063       .  S
Cd1375     O1388   2.098       .  S
O1376      C1386   1.273       .  A
O1377     Cd1378   2.005       .  S
Cd1378     O1380   2.059       .  S
O1379      C1386   1.274       .  A
C1381      C1462   1.457       .  S
C1381      O1385   1.275       .  A
C1389      C1390   1.398       .  A
C1389      C1394   1.401       .  A
C1390      C1391   1.398       .  A
C1390      H1395   1.085       .  S
C1391      C1392   1.397       .  A
C1391      C1416   1.454       .  S
C1392      C1393   1.398       .  A
C1392      H1396   1.085       .  S
C1393      C1394   1.401       .  A
C1394      H1397   1.084       .  S
O1398      C1414   1.275       .  A
C1399      O1415   1.276       .  A
C1399      O1412   1.275       .  A
O1400      C1413   1.274       .  A
O1400     Cd1407   2.059       .  S
O1401      C1419   1.273       .  A
O1401     Cd1410   2.058       .  S
O1402      C1416   1.273       .  A
O1402     Cd1406   2.055       .  S
O1403      C1414   1.273       .  A
O1403     Cd1406   2.056       .  S
Zn1404     O1415   2.057       .  S
Zn1404     O1417   2.011       .  S
Zn1404     O1409   1.953       .  S
O1405      C1416   1.274       .  A
Cd1406     O1408   2.096       .  S
Cd1407     O1411   2.102       .  S
Cd1407     O1420   2.059       .  S
Cd1407     O1409   2.005       .  S
O1409     Cd1410   2.006       .  S
Cd1410     O1412   2.095       .  S
O1411      C1418   1.276       .  A
C1413      C1434   1.457       .  S
C1413      O1417   1.274       .  A
C1419      O1420   1.274       .  A
C1421      C1422   1.399       .  A
C1421      C1426   1.398       .  A
C1422      C1423   1.399       .  A
C1422      H1427   1.084       .  S
C1423      C1424   1.398       .  A
C1424      C1425   1.397       .  A
C1424      H1428   1.085       .  S
C1425      C1426   1.397       .  A
C1425      C1457   1.453       .  S
C1426      H1429   1.085       .  S
C1430      C1431   1.399       .  A
C1430      C1435   1.401       .  A
C1430      C1454   1.458       .  S
C1431      C1432   1.398       .  A
C1431      H1436   1.084       .  S
C1432      C1433   1.397       .  A
C1433      C1434   1.398       .  A
C1433      H1437   1.085       .  S
C1434      C1435   1.400       .  A
C1435      H1438   1.084       .  S
O1439      C1455   1.274       .  A
O1439     Zn1445   2.010       .  S
C1440      O1456   1.277   1_455  A
C1440      O1453   1.275       .  A
O1441      C1454   1.273       .  A
O1441     Cd1448   2.057       .  S
O1442      C1460   1.273       .  A
O1443      C1457   1.273       .  A
O1443     Cd1447   2.057       .  S
O1444      C1455   1.274       .  A
O1444     Cd1447   2.061       .  S
Zn1445     O1456   2.059       .  S
Zn1445     O1450   1.954       .  S
O1446      C1457   1.273       .  A
O1446     Cd1451   2.055   1_655  S
Cd1447     O1449   2.102       .  S
Cd1447     O1450   2.006       .  S
Cd1448     O1452   2.095       .  S
Cd1448     O1461   2.061       .  S
O1449      C1459   1.276       .  A
O1450     Cd1451   2.005   1_655  S
Cd1451     O1453   2.094       .  S
C1454      O1458   1.275       .  A
C1460      O1461   1.274       .  A
C1462      C1463   1.400       .  A
C1462      C1467   1.398       .  A
C1463      C1464   1.399       .  A
C1463      H1468   1.084       .  S
C1464      C1465   1.399       .  A
C1465      C1466   1.399       .  A
C1465      H1469   1.085       .  S
C1466      C1467   1.399       .  A
C1467      H1470   1.085       .  S
C1471      C1472   1.398       .  A
C1471      C1476   1.401       .  A
C1471      C1545   1.458       .  S
C1472      C1473   1.398       .  A
C1472      H1477   1.085       .  S
C1473      C1474   1.397       .  A
C1473      C1516   1.454       .  S
C1474      C1475   1.397       .  A
C1474      H1478   1.085       .  S
C1475      C1476   1.400       .  A
C1475      C1665   1.457       .  S
C1476      H1479   1.084       .  S
C1480      C1481   1.397       .  A
C1480      C1485   1.400       .  A
C1480      C1670   1.456       .  S
C1481      C1482   1.397       .  A
C1481      H1486   1.085       .  S
C1482      C1483   1.399       .  A
C1482      C1571   1.455       .  S
C1483      C1484   1.399       .  A
C1483      H1487   1.085       .  S
C1484      C1485   1.400       .  A
C1484      C1624   1.458       .  S
C1485      H1488   1.084       .  S
C1489      C1490   1.398       .  A
C1489      C1494   1.398       .  A
C1489      C1629   1.455       .  S
C1490      C1491   1.398       .  A
C1490      H1495   1.084       .  S
C1491      C1492   1.398       .  A
C1491      C1548   1.455       .  S
C1492      C1493   1.398       .  A
C1492      H1496   1.085       .  S
C1493      C1494   1.398       .  A
C1493      C1594   1.454       .  S
C1494      H1497   1.085       .  S
O1498      C1514   1.276       .  A
O1498     Zn1504   2.059       .  S
C1499      C1521   1.458       .  S
C1499      O1515   1.274       .  A
C1499      O1512   1.273       .  A
O1500      C1513   1.274       .  A
O1500     Cd1507   2.062       .  S
O1501      C1519   1.275       .  A
O1501     Cd1510   2.095       .  S
O1502      C1516   1.273       .  A
O1502     Cd1506   2.057       .  S
O1503      C1514   1.275       .  A
O1503     Cd1506   2.095       .  S
Zn1504     O1515   2.015       .  S
Zn1504     O1509   1.953       .  S
O1505      C1516   1.274       .  A
O1505     Cd1510   2.059       .  S
Cd1506     O1509   2.005       .  S
Cd1507     O1511   2.062       .  S
Cd1507     O1520   2.102       .  S
O1508      C1518   1.273       .  A
O1509     Cd1510   2.004       .  S
Cd1510     O1512   2.058       .  S
O1511      C1518   1.274       .  A
C1513      C1674   1.457       .  S
C1513      O1517   1.274       .  A
C1518      C1631   1.455       .  S
C1519      C1628   1.489       .  S
C1521      C1522   1.400       .  A
C1521      C1526   1.399       .  A
C1522      C1523   1.399       .  A
C1522      H1527   1.085       .  S
C1523      C1524   1.398       .  A
C1523      C1531   1.457       .  S
C1524      C1525   1.398       .  A
C1524      H1528   1.085       .  S
C1525      C1526   1.399       .  A
C1525      C1596   1.457       .  S
C1526      H1529   1.084       .  S
O1530      C1546   1.277       .  A
O1530     Zn1536   2.066       .  S
C1531      O1547   1.274       .  A
C1531      O1544   1.273       .  A
O1532      C1545   1.273       .  A
O1532     Cd1539   2.055       .  S
O1533     Cd1542   2.101       .  S
O1534      C1548   1.273       .  A
O1535      C1546   1.275       .  A
O1535     Cd1538   2.090       .  S
Zn1536     O1549   2.019       .  S
Zn1536     O1541   1.958       .  S
O1537      C1548   1.274       .  A
O1537     Cd1542   2.061       .  S
Cd1538     O1540   2.056       .  S
Cd1538     O1541   2.002       .  S
Cd1539     O1543   2.063       .  S
Cd1539     O1552   2.098       .  S
Cd1539     O1541   2.005       .  S
O1540      C1550   1.273       .  A
Cd1542     O1544   2.056       .  S
O1543      C1550   1.274       .  A
C1545      O1549   1.275       .  A
C1550      C1642   1.455       .  S
C1551      C1574   1.490       .  S
C1551      O1552   1.275       .  A
O1553      C1569   1.276       .  A
O1553     Zn1559   2.061       .  S
C1554      C1633   1.456       .  S
C1554      O1570   1.274       .  A
C1554      O1567   1.273       .  A
O1555      C1568   1.274       .  A
O1555     Cd1562   2.057       .  S
O1556      C1574   1.276       .  A
O1556     Cd1565   2.101       .  S
O1557      C1571   1.273       .  A
O1557     Cd1561   2.056       .  S
O1558      C1569   1.275       .  A
O1558     Cd1561   2.093       .  S
Zn1559     O1570   2.010       .  S
Zn1559     O1564   1.958       .  S
O1560      C1571   1.274       .  A
O1560     Cd1565   2.061       .  S
Cd1561     O1564   2.001       .  S
Cd1562     O1566   2.062       .  S
Cd1562     O1575   2.098       .  S
O1563      C1573   1.274       .  A
O1564     Cd1565   2.005       .  S
Cd1565     O1567   2.056       .  S
O1566      C1573   1.274       .  A
C1568      C1676   1.456       .  S
C1568      O1572   1.274       .  A
C1573      C1599   1.457       .  S
O1576      C1592   1.276       .  A
O1576     Zn1582   2.059       .  S
C1577      C1603   1.457       .  S
C1577      O1593   1.274       .  A
C1577      O1590   1.274       .  A
O1578      C1591   1.274       .  A
O1578     Cd1585   2.058       .  S
O1579      C1597   1.276       .  A
O1579     Cd1588   2.099       .  S
O1580      C1594   1.273       .  A
O1580     Cd1584   2.057       .  S
O1581      C1592   1.275       .  A
O1581     Cd1584   2.094       .  S
Zn1582     O1593   2.012       .  S
Zn1582     O1587   1.954       .  S
O1583      C1594   1.273       .  A
O1583     Cd1588   2.057       .  S
Cd1584     O1587   2.005       .  S
Cd1585     O1589   2.063       .  S
Cd1585     O1598   2.098       .  S
O1586      C1596   1.273       .  A
O1587     Cd1588   2.005       .  S
Cd1588     O1590   2.059       .  S
O1589      C1596   1.274       .  A
C1591      C1672   1.457       .  S
C1591      O1595   1.275       .  A
C1599      C1600   1.398       .  A
C1599      C1604   1.401       .  A
C1600      C1601   1.398       .  A
C1600      H1605   1.085       .  S
C1601      C1602   1.397       .  A
C1601      C1626   1.454       .  S
C1602      C1603   1.398       .  A
C1602      H1606   1.085       .  S
C1603      C1604   1.401       .  A
C1604      H1607   1.084       .  S
O1608      C1624   1.275       .  A
C1609      O1625   1.276       .  A
C1609      O1622   1.275       .  A
O1610      C1623   1.274       .  A
O1610     Cd1617   2.059       .  S
O1611      C1629   1.273       .  A
O1611     Cd1620   2.058       .  S
O1612      C1626   1.273       .  A
O1612     Cd1616   2.055       .  S
O1613      C1624   1.273       .  A
O1613     Cd1616   2.056       .  S
Zn1614     O1625   2.057       .  S
Zn1614     O1627   2.011       .  S
Zn1614     O1619   1.953       .  S
O1615      C1626   1.274       .  A
Cd1616     O1618   2.096       .  S
Cd1617     O1621   2.102       .  S
Cd1617     O1630   2.059       .  S
Cd1617     O1619   2.005       .  S
O1619     Cd1620   2.006       .  S
Cd1620     O1622   2.095       .  S
O1621      C1628   1.276       .  A
C1623      C1644   1.457       .  S
C1623      O1627   1.274       .  A
C1629      O1630   1.274       .  A
C1631      C1632   1.399       .  A
C1631      C1636   1.398       .  A
C1632      C1633   1.399       .  A
C1632      H1637   1.084       .  S
C1633      C1634   1.398       .  A
C1634      C1635   1.397       .  A
C1634      H1638   1.085       .  S
C1635      C1636   1.397       .  A
C1635      C1667   1.453       .  S
C1636      H1639   1.085       .  S
C1640      C1641   1.399       .  A
C1640      C1645   1.401       .  A
C1640      C1664   1.458       .  S
C1641      C1642   1.398       .  A
C1641      H1646   1.084       .  S
C1642      C1643   1.397       .  A
C1643      C1644   1.398       .  A
C1643      H1647   1.085       .  S
C1644      C1645   1.400       .  A
C1645      H1648   1.084       .  S
O1649      C1665   1.274       .  A
O1649     Zn1655   2.010       .  S
C1650      O1666   1.277   1_455  A
C1650      O1663   1.275       .  A
O1651      C1664   1.273       .  A
O1651     Cd1658   2.057       .  S
O1652      C1670   1.273       .  A
O1653      C1667   1.273       .  A
O1653     Cd1657   2.057       .  S
O1654      C1665   1.274       .  A
O1654     Cd1657   2.061       .  S
Zn1655     O1666   2.059       .  S
Zn1655     O1660   1.954       .  S
O1656      C1667   1.273       .  A
O1656     Cd1661   2.055   1_655  S
Cd1657     O1659   2.102       .  S
Cd1657     O1660   2.006       .  S
Cd1658     O1662   2.095       .  S
Cd1658     O1671   2.061       .  S
O1659      C1669   1.276       .  A
O1660     Cd1661   2.005   1_655  S
Cd1661     O1663   2.094       .  S
C1664      O1668   1.275       .  A
C1670      O1671   1.274       .  A
C1672      C1673   1.400       .  A
C1672      C1677   1.398       .  A
C1673      C1674   1.399       .  A
C1673      H1678   1.084       .  S
C1674      C1675   1.399       .  A
C1675      C1676   1.399       .  A
C1675      H1679   1.085       .  S
C1676      C1677   1.399       .  A
C1677      H1680   1.084       .  S
