geometry optimzed in LAMMPS
_audit_creation_date              2020-11-30 
_audit_creation_method            'lammps2cif' 
_symmetry_space_group_name_H-M    'P1' 
_symmetry_Int_Tables_number       1 
_symmetry_cell_setting            triclinic 
loop_ 
_symmetry_equiv_pos_as_xyz 
  x,y,z 
_cell_length_a                    26.52723917 
_cell_length_b                    125.07943705319586 
_cell_length_c                    29.80971318922787 
_cell_angle_alpha                 90.96556649192087 
_cell_angle_beta                  90.15134921219304 
_cell_angle_gamma                 90.04760491377584 
loop_ 
_atom_site_label 
_atom_site_type_symbol 
_atom_site_fract_x 
_atom_site_fract_y 
_atom_site_fract_z 
_atom_site_charge 
O1          O  0.67774847  0.05735005  0.34614138    -0.57200
C2          C  0.72592780  0.08888301  0.40128517     0.75400
O3          O  0.73949754  0.05890225  0.47847855    -0.58400
C4          C  0.69100920  0.04796770  0.35727483     0.75400
C5          C  0.83133128  0.06374447  0.35599935     0.77800
Cd6        Cd  0.73651975  0.06599551  0.40087960     1.37500
O7          O  0.69762030  0.08298713  0.37683476    -0.57200
O8          O  0.79008858  0.06519705  0.33556778    -0.56000
C9          C  0.69173966  0.05901039  0.48269555     0.77700
O10         O  0.82953886  0.06345256  0.39863126    -0.58400
O11         O  0.75747578  0.08405107  0.42563920    -0.56900
O12         O  0.72562239  0.04739206  0.38639704    -0.56800
O13         O  0.66688782  0.06347858  0.45192445    -0.56000
O14         O  0.29132991  0.05861257  0.14871384    -0.57200
C15         C  0.24786893  0.08844602  0.08580952     0.75400
O16         O  0.20566139  0.05586292  0.02784034    -0.58400
C17         C  0.27813630  0.04895986  0.14128909     0.75400
C18         C  0.13525246  0.06511241  0.15183617     0.77800
Cd19       Cd  0.22515174  0.06598039  0.09814598     1.37500
O20         O  0.27691900  0.08243852  0.10806820    -0.57200
O21         O  0.17821416  0.06739846  0.16795453    -0.56000
C22         C  0.24964602  0.05713716  0.01204196     0.77700
O23         O  0.13277188  0.06388532  0.10947418    -0.58400
O24         O  0.20763716  0.08408799  0.07147193    -0.56900
O25         O  0.24121455  0.04754194  0.11507268    -0.56800
O26         O  0.27902301  0.06330308  0.03364269    -0.56000
C27         C  0.51321137  0.01504101  0.72030662     0.87100
C28         C  0.54872873  0.00918521  0.75266948    -0.53200
C29         C  0.52485305  0.00313850  0.78366947     0.10000
C30         C  0.46686288  0.00430851  0.78263501     0.21000
C31         C  0.47683586  0.00626708  0.70246729    -0.53900
C32         C  0.45196524  0.00054463  0.73490690     0.10100
C33         C  0.48171275  0.02196881  0.75272026    -0.53400
C34         C  0.45665821  0.01639761  0.78432307     0.10700
H35         H  0.58949471  0.00918756  0.75056267     0.15200
H36         H  0.44720194  0.00040891  0.81055665     0.00900
H37         H  0.47395280  0.00438591  0.66689830     0.15500
H38         H  0.47989341  0.03063013  0.75172693     0.15300
O39         O  0.69210452  0.89963967  0.89626326    -0.57200
C40         C  0.69061561  0.93484528  0.88537119     0.75400
O41         O  0.75249776  0.92413141  0.99703499    -0.58400
C42         C  0.72010334  0.89343433  0.91872964     0.75400
C43         C  0.82840940  0.91621593  0.87166993     0.77800
Cd44       Cd  0.73667064  0.91624049  0.92175727     1.37500
O45         O  0.67225368  0.92563311  0.87651132    -0.57200
O46         O  0.78528915  0.91562103  0.85350169    -0.56000
C47         C  0.70658250  0.92344945  0.00880587     0.77700
O48         O  0.82962968  0.91715775  0.91420486    -0.58400
O49         O  0.73053228  0.93509858  0.90860800    -0.56900
O50         O  0.75295447  0.89788509  0.94371157    -0.56800
O51         O  0.67718064  0.91836847  0.98255828    -0.56000
O52         O  0.26382696  0.89718231  0.61908898    -0.57200
C53         C  0.26866909  0.93189831  0.64577843     0.75400
O54         O  0.19329369  0.92339325  0.53559983    -0.58400
C55         C  0.23496273  0.89132479  0.59497702     0.75400
C56         C  0.13038168  0.91417858  0.66385008     0.77800
Cd57       Cd  0.21660693  0.91405429  0.60574170     1.37500
O58         O  0.28818214  0.92261147  0.64731949    -0.57200
O59         O  0.17489144  0.91283506  0.67813511    -0.56000
C60         C  0.23694495  0.92236682  0.51859321     0.77700
O61         O  0.12535122  0.91528021  0.62173888    -0.58400
O62         O  0.22564753  0.93254226  0.62775959    -0.56900
O63         O  0.19787392  0.89600586  0.57700959    -0.56800
O64         O  0.26816616  0.91667519  0.53963074    -0.56000
C65         C  0.43957803  0.96480287  0.29587567     0.87100
C66         C  0.48161558  0.97163765  0.31932751    -0.53200
C67         C  0.50899701  0.97808128  0.29110874     0.10000
C68         C  0.49243105  0.97662117  0.24180994     0.21000
C69         C  0.40907464  0.97339546  0.27099664    -0.53900
C70         C  0.43653081  0.97974730  0.24335217     0.10100
C71         C  0.46690915  0.95843276  0.25964325    -0.53400
C72         C  0.49508311  0.96443502  0.23179004     0.10700
H73         H  0.48689007  0.97179150  0.35472308     0.15200
H74         H  0.51334883  0.98145215  0.21743400     0.00900
H75         H  0.36996156  0.97511975  0.27862092     0.15500
H76         H  0.46641097  0.94974707  0.25773167     0.15300
C77         C  0.20015482  0.66519162  0.00304698     0.87100
C78         C  0.17588277  0.67054880  0.96284140    -0.53200
C79         C  0.15419704  0.68016394  0.97266786     0.10000
C80         C  0.15872379  0.68365925  0.02267107     0.21000
C81         C  0.23682267  0.67374848  0.02262909    -0.53900
C82         C  0.21533756  0.68340794  0.03438387     0.10100
C83         C  0.15802284  0.66481777  0.03873465    -0.53400
C84         C  0.13616708  0.67442919  0.04930537     0.10700
H85         H  0.17545470  0.66699777  0.92934549     0.15200
H86         H  0.14030690  0.69125239  0.03086139     0.00900
H87         H  0.27593746  0.67222065  0.02921899     0.15500
H88         H  0.14646945  0.65744193  0.05427721     0.15300
C89         C  0.82016194  0.66812707  0.34194415     0.87100
C90         C  0.83449485  0.67595192  0.38100894    -0.53200
C91         C  0.84424796  0.68629690  0.36854609     0.10000
C92         C  0.84147672  0.68771767  0.31736501     0.21000
C93         C  0.77747494  0.67384319  0.31648138    -0.53900
C94         C  0.78778437  0.68417746  0.30441767     0.10100
C95         C  0.86618595  0.66898752  0.31138603    -0.53400
C96         C  0.87638283  0.67899704  0.29716013     0.10700
H97         H  0.84007839  0.67366840  0.41528401     0.15200
H98         H  0.85024559  0.69592650  0.30701428     0.00900
H99         H  0.74188684  0.66993837  0.30889071     0.15500
H100        H  0.88816158  0.66213185  0.30011021     0.15300
C101        C  0.99819132  0.72408746  0.72193171     0.87100
C102        C  0.96725294  0.71880762  0.68396259    -0.53200
C103        C  0.95052253  0.72560318  0.65139628     0.10000
C104        C  0.96194893  0.73746317  0.66310749     0.21000
C105        C  0.03847929  0.73099568  0.69806655    -0.53900
C106        C  0.01959300  0.73795096  0.66697906     0.10100
C107        C  0.96365805  0.73269099  0.74199877    -0.53400
C108        C  0.94358806  0.73946782  0.71186756     0.10700
H109        H  0.96160529  0.71021581  0.68209292     0.15200
H110        H  0.94689420  0.74310621  0.63845385     0.00900
H111        H  0.07805992  0.73105783  0.70707197     0.15500
H112        H  0.95766122  0.73386321  0.77777372     0.15300
C113        C  0.68479797  0.81201880  0.88724270     0.87100
C114        C  0.65953656  0.80572787  0.92494548    -0.53200
C115        C  0.65019550  0.79527877  0.91494198     0.10000
C116        C  0.66453200  0.79201165  0.86625149     0.21000
C117        C  0.73099340  0.80527254  0.87284434    -0.53900
C118        C  0.72019416  0.79492456  0.86127483     0.10100
C119        C  0.64614326  0.81043993  0.84878685    -0.53400
C120        C  0.63623078  0.79998764  0.83547537     0.10700
H121        H  0.64539422  0.80909666  0.95598506     0.15200
H122        H  0.65983846  0.78344349  0.85922918     0.00900
H123        H  0.76871510  0.80855304  0.86997565     0.15500
H124        H  0.62663254  0.81727593  0.83539267     0.15300
C125        C  0.30595518  0.81105975  0.56356263     0.87100
C126        C  0.32397379  0.80581725  0.51928048    -0.53200
C127        C  0.33935026  0.79535572  0.52234274     0.10000
C128        C  0.33419563  0.79099362  0.57031379     0.21000
C129        C  0.26452009  0.80344947  0.58066795    -0.53900
C130        C  0.27869602  0.79297178  0.58268571     0.10100
C131        C  0.34868283  0.80914864  0.59744758    -0.53400
C132        C  0.36378662  0.79878468  0.60096115     0.10700
H133        H  0.32343542  0.81007264  0.48786255     0.15200
H134        H  0.34640703  0.78258443  0.57412456     0.00900
H135        H  0.22757432  0.80583248  0.59199243     0.15500
H136        H  0.36473313  0.81546769  0.61844374     0.15300
C137        C  0.46747090  0.75213273  0.24908013     0.87100
C138        C  0.48962360  0.75879897  0.21108921    -0.53200
C139        C  0.50193751  0.75316040  0.17276196     0.10000
C140        C  0.49255406  0.74099996  0.17705570     0.21000
C141        C  0.42400016  0.74568301  0.22739752    -0.53900
C142        C  0.43667672  0.73979134  0.19013149     0.10100
C143        C  0.50702965  0.74332398  0.25716540    -0.53400
C144        C  0.52154968  0.73780162  0.21943173     0.10700
H145        H  0.49574911  0.76733697  0.21496717     0.15200
H146        H  0.50290857  0.73615367  0.14708407     0.00900
H147        H  0.38657855  0.74535539  0.24179235     0.15500
H148        H  0.52128858  0.74107421  0.28968089     0.15300
C149        C  0.80253277  0.31483056  0.86844659     0.87100
C150        C  0.76068742  0.30760406  0.84814056    -0.53200
C151        C  0.77532837  0.29729408  0.84000550     0.10000
C152        C  0.83088312  0.29507385  0.85143587     0.21000
C153        C  0.82146228  0.30873578  0.90948532    -0.53900
C154        C  0.83689274  0.29849282  0.90116119     0.10100
C155        C  0.84453597  0.31366928  0.83320884    -0.53400
C156        C  0.86047475  0.30343814  0.82406007     0.10700
H157        H  0.72399654  0.31019952  0.83688827     0.15200
H158        H  0.84171885  0.28664636  0.84531432     0.00900
H159        H  0.82378764  0.31245193  0.94258522     0.15500
H160        H  0.85858599  0.32053356  0.81526128     0.15300
C161        C  0.18381081  0.31394039  0.54375356     0.87100
C162        C  0.22068040  0.30547212  0.56241998    -0.53200
C163        C  0.20267486  0.29512429  0.56332995     0.10000
C164        C  0.14714378  0.29450936  0.54719158     0.21000
C165        C  0.16931475  0.30895705  0.49764280    -0.53900
C166        C  0.14926639  0.29891011  0.49950315     0.10100
C167        C  0.13715506  0.31299138  0.57297487    -0.53400
C168        C  0.11806135  0.30297701  0.57557998     0.10700
H169        H  0.25869267  0.30737585  0.57216452     0.15200
H170        H  0.12973354  0.28651726  0.54684713     0.00900
H171        H  0.17611578  0.31285814  0.46597385     0.15500
H172        H  0.12169795  0.31969924  0.59208631     0.15300
C173        C  0.99489188  0.25390132  0.15128167     0.87100
C174        C  0.03845526  0.24700735  0.13383944    -0.53200
C175        C  0.06375897  0.24155486  0.16589323     0.10000
C176        C  0.04356954  0.24351564  0.21362284     0.21000
C177        C  0.96175591  0.24629608  0.17887090    -0.53900
C178        C  0.98710595  0.24071237  0.21081364     0.10100
C179        C  0.01814259  0.26111474  0.18858368    -0.53400
C180        C  0.04429464  0.25581369  0.22145048     0.10700
H181        H  0.04802468  0.24636038  0.09847762     0.15200
H182        H  0.06467178  0.23883919  0.23861577     0.00900
H183        H  0.92103272  0.24589003  0.17670630     0.15500
H184        H  0.01162783  0.26967855  0.18983840     0.15300
C185        C  0.33633553  0.16714280  0.04560209     0.87100
C186        C  0.30028379  0.17575901  0.06477954    -0.53200
C187        C  0.32055332  0.18580093  0.06997922     0.10000
C188        C  0.37635135  0.18627058  0.05494295     0.21000
C189        C  0.35508361  0.17191085  0.00179700    -0.53900
C190        C  0.37602113  0.18177593  0.00637079     0.10100
C191        C  0.38120737  0.16784347  0.07853661    -0.53400
C192        C  0.40301817  0.17773338  0.08348450     0.10700
H193        H  0.26189007  0.17420256  0.07582715     0.15200
H194        H  0.39444254  0.19421510  0.05779327     0.00900
H195        H  0.35102077  0.16789381  0.96936716     0.15500
H196        H  0.39305046  0.16101740  0.09796236     0.15300
C197        C  0.71972809  0.17035676  0.37859552     0.87100
C198        C  0.76300337  0.17730742  0.35911230    -0.53200
C199        C  0.74972411  0.18765917  0.34955131     0.10000
C200        C  0.69356228  0.18993270  0.35786769     0.21000
C201        C  0.69948980  0.17722320  0.41810629    -0.53900
C202        C  0.68569319  0.18746784  0.40784729     0.10100
C203        C  0.67930921  0.17101991  0.34210554    -0.53400
C204        C  0.66515847  0.18104237  0.33131071     0.10700
H205        H  0.80047350  0.17463970  0.35142268     0.15200
H206        H  0.68289048  0.19814739  0.34920480     0.00900
H207        H  0.69563552  0.17405301  0.45158999     0.15500
H208        H  0.66339603  0.16400516  0.32530059     0.15300
C209        C  0.48118501  0.22721245  0.74039549     0.87100
C210        C  0.51545096  0.23679718  0.75259484    -0.53200
C211        C  0.52822341  0.24305701  0.71755203     0.10000
C212        C  0.50222492  0.23979479  0.67317355     0.21000
C213        C  0.43492796  0.23279780  0.72001808    -0.53900
C214        C  0.44554864  0.23942830  0.68517153     0.10100
C215        C  0.50726781  0.22160779  0.70055802    -0.53400
C216        C  0.51781705  0.22800335  0.66490819     0.10700
H217        H  0.52744849  0.23903986  0.78612521     0.15200
H218        H  0.51077565  0.24522162  0.64515508     0.00900
H219        H  0.39708859  0.23197725  0.73339203     0.15500
H220        H  0.51696227  0.21317777  0.70088745     0.15300
O221        O  0.81298727  0.40111990  0.83963111    -0.57200
C222        C  0.83541254  0.43474375  0.81901456     0.75400
O223        O  0.68303889  0.42157514  0.83547084    -0.58400
C224        C  0.78267730  0.39590217  0.86389652     0.75400
C225        C  0.79473342  0.42717559  0.94234637     0.77800
Cd226      Cd  0.77285775  0.41861986  0.85482241     1.37500
O227        O  0.85156733  0.42519331  0.82076342    -0.57200
O228        O  0.82530917  0.42152979  0.91976244    -0.56000
C229        C  0.68887180  0.41937722  0.79399287     0.77700
O230        O  0.75051453  0.42810675  0.92624253    -0.58400
O231        O  0.79016246  0.43640075  0.83032737    -0.56900
O232        O  0.74872909  0.40128239  0.88377823    -0.56800
O233        O  0.73308721  0.41697056  0.78148216    -0.56000
O234        O  0.25031709  0.40023149  0.54776855    -0.57200
C235        C  0.24787939  0.43322786  0.56301529     0.75400
O236        O  0.39476487  0.41722974  0.53467837    -0.58400
C237        C  0.27844637  0.39321756  0.52958677     0.75400
C238        C  0.27588665  0.42179503  0.43291416     0.77800
Cd239      Cd  0.30130234  0.41564855  0.52411986     1.37500
O240        O  0.23284402  0.42375291  0.56968363    -0.57200
O241        O  0.24479480  0.41761750  0.45951002    -0.56000
C242        C  0.39282170  0.41684821  0.57722829     0.77700
O243        O  0.32112477  0.42229636  0.44694928    -0.58400
O244        O  0.28818874  0.43429961  0.54100075    -0.56900
O245        O  0.31656225  0.39665816  0.50876710    -0.56800
O246        O  0.34928617  0.41601483  0.59400458    -0.56000
C247        C  0.07624996  0.46817296  0.22195323     0.87100
C248        C  0.10250269  0.47601856  0.19031534    -0.53200
C249        C  0.07100857  0.48206000  0.16425258     0.10000
C250        C  0.01489382  0.47952092  0.17258473     0.21000
C251        C  0.03878511  0.47526846  0.24900499    -0.53900
C252        C  0.00826337  0.48146744  0.22324437     0.10100
C253        C  0.04057093  0.46149379  0.19183362    -0.53400
C254        C  0.00888852  0.46736216  0.16593281     0.10700
H255        H  0.14304419  0.47718440  0.19120371     0.15200
H256        H  0.98777037  0.48390891  0.15157442     0.00900
H257        H  0.03544200  0.47562210  0.28507813     0.15500
H258        H  0.03946234  0.45281863  0.19174306     0.15300
O259        O  0.81501913  0.58141140  0.36255874    -0.57200
C260        C  0.82722252  0.54741262  0.33993336     0.75400
O261        O  0.75256443  0.55713285  0.45500516    -0.58400
C262        C  0.78220870  0.58741014  0.38102088     0.75400
C263        C  0.68470418  0.56295862  0.32164492     0.77800
Cd264      Cd  0.77063479  0.56447895  0.37956325     1.37500
O265        O  0.83862298  0.55706986  0.33182812    -0.57200
O266        O  0.72977311  0.56335217  0.30815440    -0.56000
C267        C  0.79831358  0.55801287  0.46752111     0.77700
O268        O  0.67847492  0.56266394  0.36392332    -0.58400
O269        O  0.78951154  0.54584468  0.36493025    -0.56900
O270        O  0.74570479  0.58276576  0.39985505    -0.56800
O271        O  0.82800370  0.56256914  0.44075271    -0.56000
O272        O  0.27513338  0.58184528  0.05091925    -0.57200
C273        C  0.25931575  0.54793082  0.06916375     0.75400
O274        O  0.34414416  0.55630153  0.96010645    -0.58400
C275        C  0.30190651  0.58745330  0.02501589     0.75400
C276        C  0.40378475  0.56465230  0.09146149     0.77800
Cd277      Cd  0.31865788  0.56479587  0.03310118     1.37500
O278        O  0.24054980  0.55718177  0.06443157    -0.57200
O279        O  0.36031841  0.56751568  0.10433760    -0.56000
C280        C  0.29936095  0.55659686  0.94483253     0.77700
O281        O  0.40853526  0.56185752  0.05048831    -0.58400
O282        O  0.30578456  0.54685797  0.06100566    -0.56900
O283        O  0.33648744  0.58255696  0.00385628    -0.56800
O284        O  0.26708721  0.56131820  0.96910324    -0.56000
C285        C  0.01541949  0.51503407  0.67629121     0.87100
C286        C  0.04700413  0.50702037  0.64833318    -0.53200
C287        C  0.07987889  0.50107544  0.67257603     0.10000
C288        C  0.07771923  0.50344648  0.72320120     0.21000
C289        C  0.98953089  0.50751135  0.71011254    -0.53900
C290        C  0.02201362  0.50132825  0.73495714     0.10100
C291        C  0.05326841  0.52153548  0.70410411    -0.53400
C292        C  0.08579122  0.51554192  0.72839414     0.10700
H293        H  0.03942740  0.50504126  0.61342024     0.15200
H294        H  0.10570044  0.49904094  0.74316760     0.00900
H295        H  0.94900890  0.50638313  0.71072936     0.15500
H296        H  0.05450084  0.53021422  0.70428681     0.15300
C297        C  0.21428693  0.54873475  0.84813589    -0.04900
C298        C  0.23140787  0.53830485  0.83826241     0.09300
C299        C  0.27662327  0.53462179  0.85748586    -0.02300
C300        C  0.30225618  0.54099362  0.88983361    -0.00500
C301        C  0.28290057  0.55116922  0.90241840    -0.04100
C302        C  0.24069000  0.55525440  0.87906529     0.02900
C303        C  0.19971079  0.53112173  0.80934908     0.09700
C304        C  0.29548595  0.52410271  0.84512535     0.35600
C305        C  0.22363368  0.56613832  0.88734959     0.39100
C306        C  0.19981131  0.53230137  0.76245055    -0.04500
C307        C  0.16315667  0.52705325  0.73585386     0.02700
C308        C  0.12682166  0.52040490  0.75604814    -0.04100
C309        C  0.12900078  0.51865217  0.80272277    -0.00300
C310        C  0.16519769  0.52406606  0.82934261    -0.02900
C311        C  0.23720316  0.53909142  0.74181866     0.36400
C312        C  0.09257482  0.51171576  0.82388454     0.40000
C313        C  0.16292121  0.52850018  0.68765680     0.39100
C314        C  0.16585429  0.52269528  0.87759090     0.36000
C315        C  0.16778690  0.55254418  0.82818845     0.36700
C316        C  0.34657236  0.53674696  0.91180743     0.40000
N317        N  0.16260686  0.52965340  0.64922154    -0.38100
N318        N  0.26721453  0.54448123  0.72543754    -0.39700
N319        N  0.06381084  0.50617478  0.84110979    -0.37400
N320        N  0.16648969  0.52159472  0.91605768    -0.39800
N321        N  0.31042460  0.51570939  0.83509740    -0.39600
N322        N  0.38196598  0.53331689  0.92918878    -0.37200
N323        N  0.21003440  0.57481389  0.89389195    -0.38300
N324        N  0.13051939  0.55551326  0.81245417    -0.39900
C325        C  0.60939762  0.56846120  0.21534189    -0.04900
C326        C  0.56308322  0.56351490  0.22469549     0.09300
C327        C  0.55610591  0.55832657  0.26583481    -0.02300
C328        C  0.59581791  0.55793256  0.29744343    -0.00500
C329        C  0.64215515  0.56315132  0.28876398    -0.04100
C330        C  0.64828156  0.56854591  0.24750561     0.02900
C331        C  0.52185434  0.56374651  0.19058341     0.09700
C332        C  0.50799199  0.55333877  0.27530828     0.35600
C333        C  0.69403215  0.57447369  0.23800853     0.39100
C334        C  0.51492876  0.55500385  0.16072030    -0.04500
C335        C  0.47725345  0.55537454  0.12733096     0.02700
C336        C  0.44647238  0.56454159  0.12361060    -0.04100
C337        C  0.45425773  0.57338220  0.15305657    -0.00300
C338        C  0.49154393  0.57293719  0.18668193    -0.02900
C339        C  0.54652921  0.54560623  0.16471677     0.36400
C340        C  0.42487637  0.58307855  0.14797324     0.40000
C341        C  0.46903821  0.54615448  0.09805304     0.39100
C342        C  0.49865053  0.58191334  0.21752883     0.36000
C343        C  0.61720138  0.57335774  0.17207187     0.36700
C344        C  0.58940687  0.55173457  0.33770522     0.40000
N345        N  0.46253877  0.53877617  0.07480055    -0.38100
N346        N  0.57180550  0.53812846  0.16820697    -0.39700
N347        N  0.40155935  0.59081484  0.14371886    -0.37400
N348        N  0.50425165  0.58905967  0.24220792    -0.39800
N349        N  0.46946695  0.54939803  0.28265763    -0.39600
N350        N  0.58411191  0.54668840  0.36954421    -0.37200
N351        N  0.73044519  0.57920040  0.23032580    -0.38300
N352        N  0.62348438  0.57718373  0.13745300    -0.39900
C353        C  0.89016957  0.55237963  0.56136938    -0.04900
C354        C  0.87654346  0.54184160  0.57220795     0.09300
C355        C  0.83164349  0.53738544  0.55473619    -0.02300
C356        C  0.80255928  0.54310757  0.52347937    -0.00500
C357        C  0.81855012  0.55334350  0.50954311    -0.04100
C358        C  0.86089472  0.55817616  0.53074212     0.02900
C359        C  0.91189903  0.53515193  0.59895749     0.09700
C360        C  0.81732296  0.52661281  0.56675226     0.35600
C361        C  0.87540520  0.56903954  0.52012299     0.39100
C362        C  0.90475384  0.53390602  0.64526784    -0.04500
C363        C  0.93908844  0.52778094  0.67044626     0.02700
C364        C  0.98016526  0.52242233  0.64913867    -0.04100
C365        C  0.99076724  0.52518214  0.60379409    -0.00300
C366        C  0.95519790  0.53086216  0.57836817    -0.02900
C367        C  0.86273838  0.53924669  0.66719251     0.36400
C368        C  0.04031818  0.52359524  0.58426478     0.40000
C369        C  0.93455347  0.52802612  0.71884082     0.39100
C370        C  0.96390441  0.53258392  0.53091319     0.36000
C371        C  0.93616629  0.55700982  0.57969591     0.36700
C372        C  0.75885191  0.53801174  0.50304671     0.40000
N373        N  0.93082320  0.52859223  0.75744593    -0.38100
N374        N  0.82928063  0.54354586  0.68457226    -0.39700
N375        N  0.07968220  0.52242340  0.56824873    -0.37400
N376        N  0.97086844  0.53395817  0.49313627    -0.39800
N377        N  0.80613498  0.51800844  0.57638899    -0.39600
N378        N  0.72412990  0.53388672  0.48673023    -0.37200
N379        N  0.88701918  0.57768800  0.51154260    -0.38300
N380        N  0.97316940  0.56064101  0.59388584    -0.39900
C381        C  0.16152850  0.52579604  0.06168637    -0.04900
C382        C  0.17404430  0.51965814  0.09944017     0.09300
C383        C  0.21414818  0.52294250  0.12775914    -0.02300
C384        C  0.24135922  0.53234638  0.11853689    -0.00500
C385        C  0.22832488  0.53856625  0.08117723    -0.04100
C386        C  0.18869075  0.53519803  0.05246459     0.02900
C387        C  0.14425988  0.50983936  0.10998835     0.09700
C388        C  0.22740201  0.51662109  0.16638844     0.35600
C389        C  0.17779426  0.54104257  0.01190381     0.39100
C390        C  0.16423132  0.49958173  0.10131977    -0.04500
C391        C  0.13765801  0.49038858  0.11477561     0.02700
C392        C  0.09089470  0.49135800  0.13756564    -0.04100
C393        C  0.06775255  0.50162879  0.13932927    -0.00300
C394        C  0.09538227  0.51081854  0.12776867    -0.02900
C395        C  0.21246050  0.49852310  0.07886898     0.36400
C396        C  0.01502198  0.50305462  0.14995795     0.40000
C397        C  0.15747906  0.47991266  0.10303468     0.39100
C398        C  0.07373254  0.52137740  0.13494907     0.36000
C399        C  0.12109508  0.52232350  0.03196996     0.36700
C400        C  0.28268720  0.53566178  0.14758312     0.40000
N401        N  0.17342867  0.47160110  0.09309061    -0.38100
N402        N  0.25095029  0.49771206  0.06095441    -0.39700
N403        N  0.97263793  0.50463241  0.15635059    -0.37400
N404        N  0.05646592  0.52978306  0.14066222    -0.39800
N405        N  0.23810615  0.51154196  0.19707068    -0.39600
N406        N  0.31575265  0.53832603  0.17059471    -0.37200
N407        N  0.16934752  0.54562637  0.97932839    -0.38300
N408        N  0.08866130  0.51955484  0.00846495    -0.39900
C409        C  0.89978571  0.52127249  0.33442324    -0.04900
C410        C  0.90769686  0.52000802  0.28790961     0.09300
C411        C  0.89074482  0.52796049  0.25835775    -0.02300
C412        C  0.86496029  0.53703913  0.27528791    -0.00500
C413        C  0.85661275  0.53824341  0.32187091    -0.04100
C414        C  0.87448228  0.53035767  0.35139145     0.02900
C415        C  0.93343888  0.51015855  0.27047446     0.09700
C416        C  0.89958613  0.52677028  0.21056638     0.35600
C417        C  0.86775420  0.53165470  0.39945985     0.39100
C418        C  0.90470212  0.50132490  0.25516128    -0.04500
C419        C  0.92886057  0.49183399  0.24060681     0.02700
C420        C  0.98191939  0.49106483  0.24200854    -0.04100
C421        C  0.01063394  0.49990530  0.25807220    -0.00300
C422        C  0.98640975  0.50941405  0.27205334    -0.02900
C423        C  0.85011790  0.50198927  0.25504399     0.36400
C424        C  0.06531141  0.49947850  0.25798622     0.40000
C425        C  0.89882396  0.48290168  0.22438176     0.39100
C426        C  0.01592961  0.51848680  0.28800944     0.36000
C427        C  0.91757265  0.51314118  0.36479718     0.36700
C428        C  0.84489822  0.54487307  0.24466241     0.40000
N429        N  0.87363090  0.47593421  0.21160652    -0.38100
N430        N  0.80657507  0.50254240  0.25516375    -0.39700
N431        N  0.10892224  0.49923195  0.25767371    -0.37400
N432        N  0.03937066  0.52572454  0.30086889    -0.39800
N433        N  0.90654190  0.52589645  0.17237331    -0.39600
N434        N  0.82852731  0.55111487  0.22038696    -0.37200
N435        N  0.86265282  0.53263227  0.43783805    -0.38300
N436        N  0.93193499  0.50663457  0.38882129    -0.39900
C437        C  0.17980307  0.45342252  0.63791538    -0.04900
C438        C  0.17128100  0.46174897  0.60743521     0.09300
C439        C  0.18533134  0.46045907  0.56214755    -0.02300
C440        C  0.20990469  0.45105705  0.54776529    -0.00500
C441        C  0.21932560  0.44276125  0.57835589    -0.04100
C442        C  0.20315201  0.44386624  0.62326073     0.02900
C443        C  0.14798313  0.47197422  0.62307310     0.09700
C444        C  0.17461142  0.46884303  0.53044400     0.35600
C445        C  0.21230309  0.43538686  0.65484713     0.39100
C446        C  0.17853665  0.48024789  0.64094364    -0.04500
C447        C  0.15651109  0.48989831  0.65609597     0.02700
C448        C  0.10377955  0.49127544  0.65349594    -0.04100
C449        C  0.07320871  0.48290851  0.63573466    -0.00300
C450        C  0.09543243  0.47335141  0.62008559    -0.02900
C451        C  0.23258965  0.47871400  0.64439221     0.36400
C452        C  0.01862999  0.48379423  0.63628175     0.40000
C453        C  0.18801163  0.49823204  0.67570947     0.39100
C454        C  0.06419478  0.46483889  0.60144880     0.36000
C455        C  0.16543536  0.45477017  0.68455729     0.36700
C456        C  0.22539671  0.44987310  0.50130388     0.40000
N457        N  0.21360270  0.50476175  0.69167758    -0.38100
N458        N  0.27567555  0.47743709  0.64720986    -0.39700
N459        N  0.97513266  0.48448719  0.63701781    -0.37400
N460        N  0.03926594  0.45806770  0.58645701    -0.39800
N461        N  0.16579475  0.47550808  0.50513790    -0.39600
N462        N  0.23865110  0.44878750  0.46457494    -0.37200
N463        N  0.21943799  0.42863629  0.68016589    -0.38300
N464        N  0.15442316  0.45576180  0.72192244    -0.39900
C465        C  0.18812256  0.42925278  0.33666805    -0.04900
C466        C  0.20885077  0.43911424  0.32375376     0.09300
C467        C  0.25704022  0.44208268  0.33989163    -0.02300
C468        C  0.28183202  0.43585101  0.37244785    -0.00500
C469        C  0.25826044  0.42658927  0.38960781    -0.04100
C470        C  0.21289194  0.42295671  0.36898858     0.02900
C471        C  0.17796110  0.44685523  0.29691254     0.09700
C472        C  0.28003254  0.45186869  0.32436775     0.35600
C473        C  0.19129793  0.41273999  0.38102768     0.39100
C474        C  0.15532366  0.45569639  0.31867712    -0.04500
C475        C  0.12781925  0.46329190  0.29409478     0.02700
C476        C  0.11524528  0.46130151  0.24820086    -0.04100
C477        C  0.14221863  0.45289670  0.22573114    -0.00300
C478        C  0.17316837  0.44576526  0.24999859    -0.02900
C479        C  0.16041155  0.45707641  0.36688496     0.36400
C480        C  0.14016684  0.45173934  0.17724181     0.40000
C481        C  0.12018326  0.47367669  0.31520340     0.39100
C482        C  0.20066223  0.43735054  0.22663528     0.36000
C483        C  0.14004104  0.42582431  0.31812269     0.36700
C484        C  0.33022579  0.43940962  0.38982322     0.40000
N485        N  0.11524795  0.48190289  0.33301712    -0.38100
N486        N  0.16355295  0.45829216  0.40532992    -0.39700
N487        N  0.13860692  0.45074920  0.13859068    -0.37400
N488        N  0.22276447  0.43067602  0.20790316    -0.39800
N489        N  0.29819869  0.45969784  0.31201511    -0.39600
N490        N  0.36891172  0.44227337  0.40348639    -0.37200
N491        N  0.17409828  0.40457196  0.39041512    -0.38300
N492        N  0.10170115  0.42310224  0.30322932    -0.39900
C493        C  0.48165902  0.41234216  0.67626763    -0.04900
C494        C  0.52203350  0.41924515  0.66643527     0.09300
C495        C  0.52067580  0.42525262  0.62680736    -0.02300
C496        C  0.47927770  0.42430470  0.59693361    -0.00500
C497        C  0.43859084  0.41737285  0.60668846    -0.04100
C498        C  0.44055220  0.41128287  0.64639615     0.02900
C499        C  0.56672588  0.41976905  0.69738628     0.09700
C500        C  0.56164564  0.43254033  0.61721808     0.35600
C501        C  0.40125051  0.40357706  0.65603205     0.39100
C502        C  0.60269860  0.41146764  0.69628691    -0.04500
C503        C  0.64197814  0.41125906  0.72824931     0.02700
C504        C  0.64633997  0.41950319  0.76120508    -0.04100
C505        C  0.61083932  0.42794565  0.76165752    -0.00300
C506        C  0.57125130  0.42807356  0.72981080    -0.02900
C507        C  0.59900149  0.40307868  0.66221464     0.36400
C508        C  0.61552837  0.43663352  0.79425301     0.40000
C509        C  0.67644294  0.40224773  0.72838252     0.39100
C510        C  0.53506423  0.43675423  0.73032144     0.36000
C511        C  0.48231031  0.40639793  0.71768158     0.36700
C512        C  0.47820817  0.43070000  0.55682320     0.40000
N513        N  0.70375772  0.39503761  0.72866714    -0.38100
N514        N  0.59607566  0.39640813  0.63495506    -0.39700
N515        N  0.61930783  0.44355174  0.82032356    -0.37400
N516        N  0.50635920  0.44371646  0.73052694    -0.39800
N517        N  0.59417827  0.43841743  0.60981425    -0.39600
N518        N  0.47749092  0.43578958  0.52476083    -0.37200
N519        N  0.37014392  0.39738523  0.66376120    -0.38300
N520        N  0.48297358  0.40172138  0.75084721    -0.39900
C521        C  0.93745334  0.45587441  0.82577385    -0.04900
C522        C  0.92097407  0.46303981  0.79270025     0.09300
C523        C  0.87792584  0.46058088  0.76661944    -0.02300
C524        C  0.85105116  0.45106192  0.77394535    -0.00500
C525        C  0.86776651  0.44383566  0.80668308    -0.04100
C526        C  0.91144448  0.44619829  0.83222965     0.02900
C527        C  0.95033372  0.47296813  0.78387743     0.09700
C528        C  0.86108805  0.46791068  0.73249147     0.35600
C529        C  0.92823715  0.43895315  0.86673759     0.39100
C530        C  0.99757784  0.47220080  0.76290801    -0.04500
C531        C  0.02576404  0.48148422  0.75473449     0.02700
C532        C  0.00338608  0.49175353  0.76045907    -0.04100
C533        C  0.95810585  0.49243624  0.78549685    -0.00300
C534        C  0.93192322  0.48307375  0.79744129    -0.02900
C535        C  0.01685576  0.46180829  0.74876184     0.36400
C536        C  0.94031628  0.50269358  0.80212430     0.40000
C537        C  0.07885940  0.48009547  0.74585409     0.39100
C538        C  0.88569014  0.48380361  0.82318934     0.36000
C539        C  0.98032724  0.45864144  0.85402501     0.36700
C540        C  0.80612772  0.44867784  0.74772600     0.40000
N541        N  0.12155558  0.47857292  0.74117503    -0.38100
N542        N  0.03192356  0.45353115  0.73722880    -0.39700
N543        N  0.92583428  0.51072321  0.81691958    -0.37400
N544        N  0.84877956  0.48434524  0.84370640    -0.39800
N545        N  0.84758555  0.47380388  0.70547442    -0.39600
N546        N  0.77019185  0.44675379  0.72701233    -0.37200
N547        N  0.94177699  0.43319193  0.89425076    -0.38300
N548        N  0.01444251  0.46089827  0.87654866    -0.39900
C549        C  0.82586926  0.44995667  0.02406815    -0.04900
C550        C  0.86502004  0.44531600  0.04931760     0.09300
C551        C  0.87539145  0.43430622  0.04388761    -0.02300
C552        C  0.84919140  0.42813142  0.01142571    -0.00500
C553        C  0.81238592  0.43291813  0.98373988    -0.04100
C554        C  0.79943696  0.44378178  0.99150680     0.02900
C555        C  0.89795282  0.45203414  0.07959928     0.09700
C556        C  0.91474590  0.42941788  0.07052199     0.35600
C557        C  0.76135348  0.44885314  0.96409166     0.39100
C558        C  0.89452078  0.45110979  0.12660300    -0.04500
C559        C  0.93095031  0.45600953  0.15479395     0.02700
C560        C  0.96968363  0.46234514  0.13629830    -0.04100
C561        C  0.97153278  0.46371193  0.08939577    -0.00300
C562        C  0.93625537  0.45845374  0.06111775    -0.02900
C563        C  0.85377990  0.44495657  0.14578946     0.36400
C564        C  0.01140846  0.47004972  0.06989425     0.40000
C565        C  0.92870355  0.45443678  0.20285501     0.39100
C566        C  0.94049204  0.45930750  0.01278670     0.36000
C567        C  0.81418909  0.46120534  0.03037762     0.36700
C568        C  0.86106991  0.41685485  0.00600752     0.40000
N569        N  0.92694368  0.45317374  0.24119206    -0.45300
N570        N  0.82115579  0.44005645  0.16094657    -0.39700
N571        N  0.04316344  0.47507675  0.05406087    -0.37400
N572        N  0.94375142  0.45996317  0.97422305    -0.39800
N573        N  0.94604105  0.42555339  0.09195202    -0.39600
N574        N  0.87076355  0.40787835  0.00161424    -0.37200
N575        N  0.73094278  0.45289148  0.94222521    -0.38300
N576        N  0.80493714  0.47019289  0.03512814    -0.39900
C577        C  0.60330983  0.20844392  0.46923887    -0.04900
C578        C  0.62309649  0.20806162  0.51301653     0.09300
C579        C  0.66693182  0.20206568  0.52112593    -0.02300
C580        C  0.68911544  0.19592262  0.48620675    -0.00500
C581        C  0.66656617  0.19539689  0.44280278    -0.04100
C582        C  0.62493729  0.20225923  0.43417624     0.02900
C583        C  0.59571635  0.21349497  0.55098973     0.09700
C584        C  0.68866890  0.20208178  0.56585282     0.35600
C585        C  0.60357830  0.20326815  0.38971841     0.39100
C586        C  0.55211656  0.20872868  0.56850866    -0.04500
C587        C  0.52504005  0.21383187  0.60338631     0.02700
C588        C  0.54252220  0.22359169  0.62296475    -0.04100
C589        C  0.58520440  0.22859144  0.60363412    -0.00300
C590        C  0.61176547  0.22349943  0.56810988    -0.02900
C591        C  0.53530180  0.19844741  0.55064309     0.36400
C592        C  0.60228335  0.23900719  0.61913882     0.40000
C593        C  0.47750370  0.20919824  0.61685157     0.39100
C594        C  0.65606868  0.22850687  0.54920899     0.36000
C595        C  0.55973107  0.21513472  0.46058366     0.36700
C596        C  0.73623193  0.19046779  0.49514597     0.40000
N597        N  0.43956714  0.20524886  0.62598907    -0.38100
N598        N  0.52211452  0.19024779  0.53636202    -0.39700
N599        N  0.61672075  0.24742821  0.62947435    -0.37400
N600        N  0.69155961  0.23246678  0.53425966    -0.39800
N601        N  0.70597265  0.20213416  0.60153490    -0.39600
N602        N  0.77367604  0.18612227  0.50287825    -0.37200
N603        N  0.58618485  0.20462757  0.35462294    -0.38300
N604        N  0.52495033  0.22045551  0.45383362    -0.39900
C605        C  0.41837177  0.20437758  0.80809222    -0.04900
C606        C  0.44023906  0.20581774  0.85093228     0.09300
C607        C  0.47946683  0.21332772  0.85633614    -0.02300
C608        C  0.49788168  0.21886198  0.81903195    -0.00500
C609        C  0.46909534  0.21925874  0.77856980    -0.04100
C610        C  0.43005806  0.21147143  0.77313560     0.02900
C611        C  0.42314704  0.19924643  0.88992006     0.09700
C612        C  0.50162842  0.21533420  0.90027607     0.35600
C613        C  0.40095930  0.21060876  0.73204358     0.39100
C614        C  0.45713519  0.19229215  0.91165115    -0.04500
C615        C  0.44245237  0.18699367  0.95096342     0.02700
C616        C  0.39245987  0.18782040  0.96647601    -0.04100
C617        C  0.35697704  0.19374568  0.94182050    -0.00300
C618        C  0.37285717  0.19995596  0.90542822    -0.02900
C619        C  0.50673757  0.19034556  0.89282901     0.36400
C620        C  0.30394897  0.19334477  0.95356723     0.40000
C621        C  0.47845850  0.18046248  0.97477587     0.39100
C622        C  0.33746092  0.20715416  0.88433255     0.36000
C623        C  0.38429406  0.19546469  0.79981737     0.36700
C624        C  0.54993521  0.22236335  0.82116711     0.40000
N625        N  0.50744893  0.17527785  0.99362026    -0.38100
N626        N  0.54620163  0.18877214  0.87764402    -0.39700
N627        N  0.26164604  0.19295963  0.96280794    -0.37400
N628        N  0.30922671  0.21287289  0.86736774    -0.39800
N629        N  0.51921304  0.21697776  0.93529162    -0.39600
N630        N  0.59175340  0.22496548  0.82360481    -0.37200
N631        N  0.37583334  0.20993342  0.70034294    -0.38300
N632        N  0.35747957  0.18830186  0.79324287    -0.39900
C633        C  0.52019188  0.17319577  0.15677574    -0.04900
C634        C  0.52091890  0.18240744  0.18458331     0.09300
C635        C  0.48514856  0.19052302  0.17742933    -0.02300
C636        C  0.44646483  0.18908244  0.14506101    -0.00500
C637        C  0.44577924  0.17986129  0.11630663    -0.04100
C638        C  0.48504888  0.17222429  0.12138181     0.02900
C639        C  0.55802738  0.18322541  0.22267149     0.09700
C640        C  0.48747309  0.20029154  0.20443303     0.35600
C641        C  0.49113987  0.16335051  0.09006418     0.39100
C642        C  0.61037564  0.18349796  0.21395785    -0.04500
C643        C  0.64521041  0.18251621  0.24941648     0.02700
C644        C  0.62836003  0.18259787  0.29432816    -0.04100
C645        C  0.57613077  0.18229050  0.30314758    -0.00300
C646        C  0.54111185  0.18254635  0.26749112    -0.02900
C647        C  0.62841982  0.18448341  0.16830430     0.36400
C648        C  0.55825123  0.18101153  0.34868434     0.40000
C649        C  0.69809645  0.18068360  0.23946068     0.39100
C650        C  0.48763945  0.18164754  0.27686699     0.36000
C651        C  0.55488490  0.16447778  0.16549203     0.36700
C652        C  0.40655981  0.19695672  0.14431160     0.40000
N653        N  0.74018940  0.17914303  0.23155312    -0.38100
N654        N  0.64281492  0.18523341  0.13187706    -0.39700
N655        N  0.54335696  0.18007537  0.38485466    -0.37400
N656        N  0.44497838  0.18097064  0.28433657    -0.39800
N657        N  0.48926431  0.20805401  0.22606876    -0.39600
N658        N  0.37613939  0.20357252  0.14580240    -0.37200
N659        N  0.49825119  0.15611390  0.06629032    -0.38300
N660        N  0.58250301  0.15754614  0.17257431    -0.39900
C661        C  0.81346688  0.21025459  0.28398444    -0.04900
C662        C  0.85993316  0.21129331  0.30656327     0.09300
C663        C  0.86950939  0.20501583  0.34442704    -0.02300
C664        C  0.83385006  0.19733004  0.35825518    -0.00500
C665        C  0.78714178  0.19605969  0.33510568    -0.04100
C666        C  0.77648672  0.20307233  0.29918423     0.02900
C667        C  0.89844146  0.21902082  0.28956995     0.09700
C668        C  0.91596186  0.20659741  0.36949836     0.35600
C669        C  0.72735617  0.20350450  0.27810099     0.39100
C670        C  0.88949378  0.23013412  0.29261084    -0.04500
C671        C  0.91976176  0.23727781  0.26834794     0.02700
C672        C  0.96025762  0.23338237  0.24189110    -0.04100
C673        C  0.97285710  0.22241336  0.24360022    -0.00300
C674        C  0.94123694  0.21522407  0.26630025    -0.02900
C675        C  0.84816117  0.23415969  0.31980386     0.36400
C676        C  0.01791654  0.21835054  0.22206804     0.40000
C677        C  0.90978869  0.24867443  0.27128942     0.39100
C678        C  0.95155839  0.20383536  0.26411131     0.36000
C679        C  0.80377816  0.21661922  0.24450479     0.36700
C680        C  0.84480533  0.19113753  0.39780406     0.40000
N681        N  0.90196232  0.25776811  0.27360327    -0.38100
N682        N  0.81514070  0.23734487  0.34150318    -0.39700
N683        N  0.05404528  0.21470140  0.20653461    -0.37400
N684        N  0.95982320  0.19475460  0.26241925    -0.39800
N685        N  0.95301444  0.20789229  0.38944894    -0.39600
N686        N  0.85423085  0.18621003  0.42923978    -0.37200
N687        N  0.68852990  0.20460010  0.26100368    -0.38300
N688        N  0.79620866  0.22170878  0.21313366    -0.39900
C689        C  0.25586788  0.21314538  0.08682000    -0.04900
C690        C  0.22083241  0.21074772  0.12056490     0.09300
C691        C  0.22288099  0.20076834  0.14155881    -0.02300
C692        C  0.25876445  0.19307506  0.12783426    -0.00500
C693        C  0.29050802  0.19493622  0.09032730    -0.04100
C694        C  0.29084125  0.20535042  0.07188292     0.02900
C695        C  0.18059943  0.21864220  0.13290703     0.09700
C696        C  0.18686395  0.19830400  0.17646421     0.35600
C697        C  0.32763310  0.20843902  0.03878555     0.39100
C698        C  0.13265935  0.21777961  0.11269407    -0.04500
C699        C  0.09468404  0.22526530  0.12331101     0.02700
C700        C  0.10434648  0.23370237  0.15451484    -0.04100
C701        C  0.15237086  0.23449557  0.17502841    -0.00300
C702        C  0.19042356  0.22700941  0.16405908    -0.02900
C703        C  0.12241504  0.20909405  0.08108330     0.36400
C704        C  0.16326498  0.24314078  0.20662020     0.40000
C705        C  0.04472322  0.22386257  0.10406623     0.39100
C706        C  0.23994137  0.22794669  0.18447998     0.36000
C707        C  0.25486716  0.22363006  0.06665694     0.36700
C708        C  0.26458254  0.18348423  0.15411097     0.40000
N709        N  0.00480845  0.22273039  0.08894438    -0.38100
N710        N  0.11439387  0.20213735  0.05598447    -0.39700
N711        N  0.17232758  0.24998890  0.23196964    -0.37400
N712        N  0.27952271  0.22872071  0.20063162    -0.39800
N713        N  0.15771266  0.19630419  0.20390024    -0.39600
N714        N  0.26929574  0.17584985  0.17512132    -0.37200
N715        N  0.35710027  0.21143927  0.01334134    -0.38300
N716        N  0.25387777  0.23200061  0.05072365    -0.39900
C717        C  0.32107497  0.27773210  0.58216031    -0.04900
C718        C  0.30161917  0.26908329  0.60615563     0.09300
C719        C  0.24915554  0.26818031  0.61173037    -0.02300
C720        C  0.21636464  0.27632318  0.59680250    -0.00500
C721        C  0.23583175  0.28555750  0.57500345    -0.04100
C722        C  0.28859644  0.28563151  0.56506824     0.02900
C723        C  0.33666533  0.26103565  0.62644828     0.09700
C724        C  0.22894887  0.25878624  0.63340499     0.35600
C725        C  0.31076159  0.29351755  0.53591022     0.39100
C726        C  0.34387985  0.26092039  0.67336514    -0.04500
C727        C  0.37799178  0.25364428  0.69261713     0.02700
C728        C  0.40675969  0.24662488  0.66492487    -0.04100
C729        C  0.39926119  0.24673457  0.61793211    -0.00300
C730        C  0.36371135  0.25376211  0.59891873    -0.02900
C731        C  0.31705828  0.26852931  0.70181742     0.36400
C732        C  0.42742756  0.23951497  0.58889220     0.40000
C733        C  0.38535674  0.25387769  0.74090525     0.39100
C734        C  0.35473988  0.25351370  0.55088329     0.36000
C735        C  0.37516988  0.27858922  0.57549237     0.36700
C736        C  0.16304837  0.27484033  0.60497955     0.40000
N737        N  0.39116198  0.25408022  0.77940545    -0.38100
N738        N  0.29554608  0.27459665  0.72438085    -0.39700
N739        N  0.44976703  0.23384701  0.56519235    -0.37400
N740        N  0.34750683  0.25336083  0.51257607    -0.39800
N741        N  0.21295805  0.25130117  0.65070739    -0.39600
N742        N  0.12082654  0.27319688  0.61187471    -0.37200
N743        N  0.32993012  0.29981418  0.51360227    -0.38300
N744        N  0.41822269  0.27925999  0.57001528    -0.39900
C745        C  0.08448283  0.26257213  0.34361237    -0.04900
C746        C  0.10069099  0.27322513  0.33980019     0.09300
C747        C  0.10315821  0.27780447  0.29712883    -0.02300
C748        C  0.08914533  0.27180106  0.25856398    -0.00500
C749        C  0.06674171  0.26148875  0.26233564    -0.04100
C750        C  0.06498894  0.25693373  0.30591065     0.02900
C751        C  0.11357442  0.27972118  0.38103649     0.09700
C752        C  0.12013161  0.28879223  0.29285276     0.35600
C753        C  0.04176566  0.24667844  0.31407063     0.39100
C754        C  0.16349855  0.28312348  0.38917734    -0.04500
C755        C  0.17471598  0.28972012  0.42676360     0.02700
C756        C  0.13688116  0.29227766  0.45864598    -0.04100
C757        C  0.08767015  0.28817479  0.45191586    -0.00300
C758        C  0.07555685  0.28242917  0.41222401    -0.02900
C759        C  0.20350789  0.27969791  0.35908612     0.36400
C760        C  0.04924070  0.28947803  0.48590727     0.40000
C761        C  0.22567898  0.29365467  0.43254342     0.39100
C762        C  0.02364127  0.27935632  0.40322859     0.36000
C763        C  0.08791768  0.25741352  0.38684248     0.36700
C764        C  0.10061708  0.27633634  0.21546837     0.40000
N765        N  0.26654889  0.29680315  0.43557560    -0.38100
N766        N  0.23532175  0.27695141  0.33504237    -0.39700
N767        N  0.01746140  0.28991446  0.51233978    -0.37400
N768        N  0.98229692  0.27691520  0.39592387    -0.39800
N769        N  0.13391236  0.29752195  0.28944160    -0.39600
N770        N  0.11138169  0.28053285  0.18260111    -0.37200
N771        N  0.02438504  0.23850864  0.32313494    -0.38300
N772        N  0.09107649  0.25331576  0.42125433    -0.39900
C773        C  0.18872790  0.34409332  0.51357589    -0.04900
C774        C  0.23104755  0.34777461  0.53785314     0.09300
C775        C  0.25677825  0.34070496  0.56606171    -0.02300
C776        C  0.23931658  0.33012804  0.57122479    -0.00500
C777        C  0.20107048  0.32583208  0.54228110    -0.04100
C778        C  0.17361106  0.33328198  0.51575102     0.02900
C779        C  0.24556297  0.35936810  0.53664859     0.09700
C780        C  0.30082729  0.34443356  0.59077839     0.35600
C781        C  0.12730977  0.33019157  0.49288483     0.39100
C782        C  0.23513214  0.36621575  0.57365094    -0.04500
C783        C  0.24710820  0.37720058  0.57192438     0.02700
C784        C  0.26738796  0.38155049  0.53227275    -0.04100
C785        C  0.27754523  0.37465398  0.49519570    -0.00300
C786        C  0.26790793  0.36359146  0.49789898    -0.02900
C787        C  0.21177456  0.36194557  0.61352799     0.36400
C788        C  0.29606533  0.37894830  0.45342089     0.40000
C789        C  0.24031362  0.38389082  0.61170612     0.39100
C790        C  0.28121752  0.35650271  0.46078990     0.36000
C791        C  0.15982455  0.35157115  0.48704202     0.36700
C792        C  0.25531626  0.32462561  0.61119864     0.40000
N793        N  0.23526501  0.38918286  0.64360462    -0.38100
N794        N  0.19331188  0.35850768  0.64533303    -0.39700
N795        N  0.31058441  0.38240998  0.42008553    -0.37400
N796        N  0.29207797  0.35084002  0.43128334    -0.39800
N797        N  0.33607660  0.34741731  0.61023541    -0.39600
N798        N  0.26797465  0.32043122  0.64366683    -0.37200
N799        N  0.09043260  0.32782731  0.47438427    -0.38300
N800        N  0.13690120  0.35754734  0.46592463    -0.39900
C801        C  0.59130334  0.26992488  0.74068962    -0.04900
C802        C  0.64026348  0.26662402  0.75308428     0.09300
C803        C  0.65402263  0.25579218  0.74749958    -0.02300
C804        C  0.61776381  0.24817262  0.73377292    -0.00500
C805        C  0.56798755  0.25139304  0.72339049    -0.04100
C806        C  0.55572306  0.26236242  0.72461444     0.02900
C807        C  0.67619435  0.27439177  0.77489019     0.09700
C808        C  0.70525798  0.25246307  0.75709033     0.35600
C809        C  0.50643388  0.26593328  0.71036828     0.39100
C810        C  0.68711649  0.27360833  0.82115260    -0.04500
C811        C  0.72062454  0.28089833  0.84209057     0.02700
C812        C  0.74166257  0.28932403  0.81746798    -0.04100
C813        C  0.73064268  0.29015032  0.77121973    -0.00300
C814        C  0.69907102  0.28253395  0.74977120    -0.02900
C815        C  0.66354533  0.26530336  0.84732093     0.36400
C816        C  0.75376563  0.29854708  0.74529029     0.40000
C817        C  0.73305144  0.27971297  0.88910016     0.39100
C818        C  0.69116599  0.28287501  0.70166579     0.36000
C819        C  0.57677664  0.28103625  0.74662991     0.36700
C820        C  0.63171040  0.23696823  0.73020868     0.40000
N821        N  0.74262040  0.27852932  0.92656451    -0.38100
N822        N  0.64483341  0.25864362  0.86802404    -0.39700
N823        N  0.77266743  0.30519640  0.72466291    -0.37400
N824        N  0.68504082  0.28308789  0.66323986    -0.39800
N825        N  0.74612852  0.24982806  0.76483782    -0.39600
N826        N  0.64274548  0.22803589  0.72716516    -0.37200
N827        N  0.46786928  0.26915395  0.69850347    -0.38300
N828        N  0.56525727  0.28989916  0.75156732    -0.39900
C829        C  0.92287504  0.27905610  0.96412792    -0.04900
C830        C  0.90118529  0.27916783  0.00727373     0.09300
C831        C  0.85740679  0.28526092  0.01531864    -0.02300
C832        C  0.83521478  0.29116913  0.98044107    -0.00500
C833        C  0.85820310  0.29151410  0.93737948    -0.04100
C834        C  0.90257228  0.28541035  0.92979937     0.02900
C835        C  0.92425703  0.27268316  0.04400324     0.09700
C836        C  0.83531345  0.28547289  0.05980718     0.35600
C837        C  0.92939229  0.28586981  0.88758497     0.39100
C838        C  0.97123859  0.27561669  0.06247245    -0.04500
C839        C  0.99544062  0.26890948  0.09334711     0.02700
C840        C  0.96971427  0.26007006  0.11222567    -0.04100
C841        C  0.92474056  0.25657716  0.08986988    -0.00300
C842        C  0.90206760  0.26295057  0.05656171    -0.02900
C843        C  0.99574504  0.28538044  0.04837343     0.36400
C844        C  0.90532253  0.24584303  0.09516992     0.40000
C845        C  0.04944750  0.27003331  0.09888992     0.39100
C846        C  0.85711749  0.25922223  0.03315718     0.36000
C847        C  0.96638441  0.27232722  0.95505314     0.36700
C848        C  0.78769349  0.29656563  0.98899503     0.40000
N849        N  0.09294791  0.27058742  0.10038404    -0.38100
N850        N  0.01526602  0.29316350  0.03712375    -0.39700
N851        N  0.88939031  0.23727690  0.09862722    -0.37400
N852        N  0.82149970  0.25626722  0.01416914    -0.39800
N853        N  0.81782050  0.28563905  0.09533531    -0.39600
N854        N  0.74976154  0.30084229  0.99595012    -0.37200
N855        N  0.95198557  0.28597521  0.85444726    -0.38300
N856        N  0.00103943  0.26695400  0.94792122    -0.39900
C857        C  0.97456242  0.30729602  0.74707029    -0.04900
C858        C  0.96797429  0.29907559  0.71488141     0.09300
C859        C  0.92935298  0.29151979  0.72044456    -0.02300
C860        C  0.89556038  0.29246450  0.75703371    -0.00500
C861        C  0.90003292  0.30113844  0.78852312    -0.04100
C862        C  0.94200668  0.30815734  0.78416328     0.02900
C863        C  0.00355237  0.29835935  0.67606117     0.09700
C864        C  0.92469939  0.28272459  0.68831487     0.35600
C865        C  0.95422759  0.31609014  0.81846088     0.39100
C866        C  0.05312043  0.29469392  0.68316640    -0.04500
C867        C  0.09053938  0.29639385  0.65064926     0.02700
C868        C  0.07761521  0.30070383  0.60865620    -0.04100
C869        C  0.02791949  0.30445256  0.60164439    -0.00300
C870        C  0.99084719  0.30313543  0.63501778    -0.02900
C871        C  0.06612901  0.28968140  0.72517579     0.36400
C872        C  0.01593302  0.31049993  0.56190184     0.40000
C873        C  0.14306979  0.29515588  0.66313262     0.39100
C874        C  0.94013748  0.30712842  0.62808553     0.36000
C875        C  0.01534265  0.31495039  0.74183708     0.36700
C876        C  0.85763826  0.28423772  0.76159149     0.40000
N877        N  0.18483171  0.29436002  0.67389979    -0.38100
N878        N  0.07635525  0.28565101  0.75864597    -0.39700
N879        N  0.00617935  0.31537203  0.53038187    -0.37400
N880        N  0.89961692  0.31028253  0.62262610    -0.39800
N881        N  0.92111623  0.27570802  0.66269905    -0.39600
N882        N  0.82909751  0.27727192  0.76418485    -0.37200
N883        N  0.96602337  0.32259795  0.84442129    -0.38300
N884        N  0.04791164  0.32100753  0.73757093    -0.39900
C885        C  0.83126064  0.34459185  0.89338563    -0.04900
C886        C  0.78615284  0.34959792  0.88103288     0.09300
C887        C  0.74252526  0.34337399  0.87398841    -0.02300
C888        C  0.74512104  0.33206661  0.87514637    -0.00500
C889        C  0.79266998  0.32686212  0.87970887    -0.04100
C890        C  0.83429762  0.33336037  0.89393733     0.02900
C891        C  0.78481663  0.36149473  0.87667432     0.09700
C892        C  0.69474199  0.34867345  0.86607160     0.35600
C893        C  0.87971881  0.32861992  0.91206812     0.39100
C894        C  0.79855679  0.36616787  0.83576868    -0.04500
C895        C  0.79936327  0.37739491  0.83174628     0.02700
C896        C  0.78588326  0.38406120  0.86871824    -0.04100
C897        C  0.77377769  0.37930489  0.91020528    -0.00300
C898        C  0.77341006  0.36807752  0.91409128    -0.02900
C899        C  0.81251320  0.35935657  0.79792231     0.36400
C900        C  0.76377090  0.38592821  0.94963197     0.40000
C901        C  0.81341582  0.38199281  0.78920560     0.39100
C902        C  0.76269529  0.36326224  0.95696946     0.36000
C903        C  0.87478405  0.35107723  0.90557715     0.36700
C904        C  0.69810793  0.32623923  0.87760746     0.40000
N905        N  0.82500861  0.38561994  0.75528626    -0.38100
N906        N  0.82381010  0.35388607  0.76791544    -0.39700
N907        N  0.75593796  0.39120919  0.98109910    -0.37400
N908        N  0.75453430  0.35941859  0.99124029    -0.39800
N909        N  0.65666278  0.35291645  0.85986753    -0.39600
N910        N  0.65983311  0.32184073  0.88028665    -0.37200
N911        N  0.91517030  0.32493924  0.92841304    -0.38300
N912        N  0.90931125  0.35627819  0.91540239    -0.39900
C913        C  0.41145165  0.78761855  0.41467298    -0.04900
C914        C  0.39479847  0.77709250  0.40645285     0.09300
C915        C  0.36077191  0.77236776  0.43626299    -0.02300
C916        C  0.34317422  0.77813580  0.47431972    -0.00500
C917        C  0.35883664  0.78890017  0.48260907    -0.04100
C918        C  0.39396630  0.79347525  0.45240897     0.02900
C919        C  0.41396459  0.77092569  0.36645050     0.09700
C920        C  0.34391261  0.76147158  0.42758081     0.35600
C921        C  0.41459924  0.80405770  0.46043332     0.39100
C922        C  0.46222572  0.76631635  0.36733291    -0.04500
C923        C  0.48146671  0.76087188  0.32910126     0.02700
C924        C  0.45084744  0.75924910  0.28996419    -0.04100
C925        C  0.40431532  0.76501906  0.28831668    -0.00300
C926        C  0.38550221  0.77043901  0.32669597    -0.02900
C927        C  0.49270082  0.76744008  0.40774405     0.36400
C928        C  0.37570845  0.76584994  0.24696576     0.40000
C929        C  0.53446202  0.75814055  0.32994342     0.39100
C930        C  0.33661769  0.77564338  0.32530864     0.36000
C931        C  0.44720640  0.79239753  0.38409933     0.36700
C932        C  0.30934450  0.77264800  0.50419726     0.40000
N933        N  0.57690866  0.75612255  0.33265925    -0.38100
N934        N  0.51690091  0.76840488  0.43992120    -0.39700
N935        N  0.35185662  0.76648864  0.21456062    -0.37400
N936        N  0.29757053  0.77975312  0.32435443    -0.39800
N937        N  0.33034212  0.75280568  0.42057280    -0.39600
N938        N  0.28364431  0.76758773  0.52686935    -0.37200
N939        N  0.43186683  0.81249217  0.46519650    -0.38300
N940        N  0.47587318  0.79614270  0.35973289    -0.39900
C941        C  0.63384434  0.77965342  0.02313388    -0.04900
C942        C  0.58560953  0.77507092  0.01698567     0.09300
C943        C  0.55842715  0.77716060  0.97727295    -0.02300
C944        C  0.57849330  0.78409070  0.94487302    -0.00500
C945        C  0.62813386  0.78806815  0.94943960    -0.04100
C946        C  0.65494165  0.78612878  0.98968922     0.02900
C947        C  0.56163798  0.76900129  0.05451451     0.09700
C948        C  0.50917148  0.77236075  0.97031206     0.35600
C949        C  0.70320328  0.79127063  0.99805498     0.39100
C950        C  0.52245285  0.77370752  0.07977708    -0.04500
C951        C  0.50143030  0.76832158  0.11653282     0.02700
C952        C  0.52207810  0.75846187  0.13114315    -0.04100
C953        C  0.56195749  0.75382814  0.10555500    -0.00300
C954        C  0.57995691  0.75887775  0.06657831    -0.02900
C955        C  0.50412109  0.78425841  0.06829568     0.36400
C956        C  0.58694305  0.74414514  0.11956650     0.40000
C957        C  0.45768473  0.77302614  0.13815066     0.39100
C958        C  0.61775813  0.75367779  0.03868190     0.36000
C959        C  0.66123696  0.77794446  0.06462033     0.36700
C960        C  0.54538876  0.78832986  0.91081751     0.40000
N961        N  0.42312172  0.77708815  0.15472860    -0.38100
N962        N  0.48948174  0.79265804  0.05911380    -0.39700
N963        N  0.60805266  0.73642116  0.12920706    -0.37400
N964        N  0.64767416  0.74953055  0.01621294    -0.39800
N965        N  0.46993731  0.76849153  0.96487949    -0.39600
N966        N  0.51790797  0.79188397  0.88480388    -0.37200
N967        N  0.74170333  0.79534445  0.00496360    -0.38300
N968        N  0.68301260  0.77652749  0.09768139    -0.39900
C969        C  0.53680556  0.78564437  0.75857246    -0.04900
C970        C  0.52716098  0.79357340  0.72704113     0.09300
C971        C  0.55754319  0.80272227  0.72634853    -0.02300
C972        C  0.59491925  0.80445747  0.75943433    -0.00500
C973        C  0.60201465  0.79707383  0.79528570    -0.04100
C974        C  0.57467756  0.78716028  0.79174562     0.02900
C975        C  0.48242411  0.79287594  0.69645764     0.09700
C976        C  0.54918798  0.81056054  0.69157762     0.35600
C977        C  0.58369135  0.77822688  0.82091152     0.39100
C978        C  0.43626550  0.79726092  0.71100040    -0.04500
C979        C  0.39656452  0.79867630  0.68026519     0.02700
C980        C  0.40252215  0.79559041  0.63462737    -0.04100
C981        C  0.44736506  0.79037907  0.62097741    -0.00300
C982        C  0.48756031  0.78919534  0.65170697    -0.02900
C983        C  0.43068905  0.80082300  0.75731684     0.36400
C984        C  0.45347374  0.78670016  0.57495064     0.40000
C985        C  0.34955125  0.80336983  0.69575873     0.39100
C986        C  0.53526657  0.78476396  0.63677380     0.36000
C987        C  0.50659255  0.77594592  0.75719626     0.36700
C988        C  0.62614390  0.81385167  0.75404357     0.40000
N989        N  0.31206140  0.80711400  0.70804242    -0.38100
N990        N  0.42656282  0.80366515  0.79426839    -0.39700
N991        N  0.45897557  0.78361985  0.53847279    -0.37400
N992        N  0.57346292  0.78131170  0.62473663    -0.39800
N993        N  0.54238252  0.81675497  0.66380747    -0.39600
N994        N  0.64920078  0.82153991  0.74785922    -0.37200
N995        N  0.58925828  0.77074757  0.84277735    -0.38300
N996        N  0.48248027  0.76822990  0.75611625    -0.39900
C997        C  0.13476195  0.74938073  0.60838276    -0.04900
C998        C  0.12701848  0.76044176  0.61472237     0.09300
C999        C  0.07974789  0.76414811  0.62977827    -0.02300
C1000       C  0.04188337  0.75682347  0.64181685    -0.00500
C1001       C  0.05255628  0.74569843  0.64241364    -0.04100
C1002       C  0.09748563  0.74204808  0.62174839     0.02900
C1003       C  0.16808547  0.76826009  0.60480709     0.09700
C1004       C  0.07016021  0.77556596  0.63319755     0.35600
C1005       C  0.10325447  0.73085016  0.60986030     0.39100
C1006       C  0.16464579  0.77481114  0.56688762    -0.04500
C1007       C  0.20106695  0.78279501  0.55971245     0.02700
C1008       C  0.24131800  0.78430651  0.59048633    -0.04100
C1009       C  0.24623367  0.77735396  0.62707647    -0.00300
C1010       C  0.20961984  0.76937130  0.63425517    -0.02900
C1011       C  0.12383897  0.77322671  0.53494451     0.36400
C1012       C  0.28860138  0.77834832  0.65759950     0.40000
C1013       C  0.19916194  0.78892899  0.51883798     0.39100
C1014       C  0.21452684  0.76228986  0.67208381     0.36000
C1015       C  0.18096853  0.74557408  0.58769354     0.36700
C1016       C  0.99182876  0.76095290  0.65046193     0.40000
N1017       N  0.19813346  0.79370336  0.48593210    -0.38100
N1018       N  0.09116976  0.77197056  0.50959188    -0.39700
N1019       N  0.32212163  0.77882644  0.68245212    -0.37400
N1020       N  0.21857386  0.75655984  0.70195841    -0.39800
N1021       N  0.06243329  0.78466196  0.63561247    -0.39600
N1022       N  0.95211537  0.76462253  0.65522028    -0.37200
N1023       N  0.10812458  0.72204000  0.59831189    -0.38300
N1024       N  0.21782303  0.74255137  0.57113655    -0.39900
C1025       C  0.80943812  0.77138902  0.83958456    -0.04900
C1026       C  0.82146703  0.77275912  0.79405376     0.09300
C1027       C  0.80153429  0.78148301  0.77086208    -0.02300
C1028       C  0.76846904  0.78867693  0.79274343    -0.00500
C1029       C  0.75693984  0.78751621  0.83880691    -0.04100
C1030       C  0.77722808  0.77870970  0.86188731     0.02900
C1031       C  0.85297184  0.76463162  0.76987824     0.09700
C1032       C  0.81436493  0.78289252  0.72400651     0.35600
C1033       C  0.76388090  0.77677904  0.90803465     0.39100
C1034       C  0.82969625  0.75585860  0.74777695    -0.04500
C1035       C  0.85934606  0.74772354  0.72792664     0.02700
C1036       C  0.91236627  0.74858093  0.72819800    -0.04100
C1037       C  0.93561298  0.75728844  0.75115418    -0.00300
C1038       C  0.90593801  0.76537668  0.77124772    -0.02900
C1039       C  0.77514820  0.75508034  0.74668623     0.36400
C1040       C  0.99010212  0.75773802  0.75550890     0.40000
C1041       C  0.83549828  0.73802195  0.71104426     0.39100
C1042       C  0.92974973  0.77438138  0.79414683     0.36000
C1043       C  0.82959835  0.76226867  0.86315146     0.36700
C1044       C  0.74345820  0.79663408  0.76612181     0.40000
N1045       N  0.81648593  0.73022682  0.69809486    -0.38100
N1046       N  0.73161130  0.75451312  0.74579707    -0.39700
N1047       N  0.03354017  0.75810057  0.75896868    -0.37400
N1048       N  0.94862100  0.78157904  0.81242536    -0.39800
N1049       N  0.82478029  0.78401179  0.68670296    -0.39600
N1050       N  0.72413545  0.80257002  0.74230176    -0.37200
N1051       N  0.75441738  0.77465434  0.94464937    -0.38300
N1052       N  0.84575662  0.75497542  0.88173473    -0.39900
C1053       C  0.72513095  0.70572497  0.23170013    -0.04900
C1054       C  0.67723025  0.70650095  0.25150273     0.09300
C1055       C  0.66484872  0.69984659  0.28744484    -0.02300
C1056       C  0.69985599  0.69229346  0.30321681    -0.00500
C1057       C  0.74918585  0.69165520  0.28464055    -0.04100
C1058       C  0.76164198  0.69869724  0.24913676     0.02900
C1059       C  0.64038898  0.71476981  0.23652923     0.09700
C1060       C  0.61627361  0.70107787  0.30931987     0.35600
C1061       C  0.81197577  0.69926255  0.23062973     0.39100
C1062       C  0.59625286  0.71169868  0.21313344    -0.04500
C1063       C  0.55747485  0.71920863  0.20594803     0.02700
C1064       C  0.56381897  0.72994573  0.22049946    -0.04100
C1065       C  0.61096160  0.73323536  0.23823139    -0.00300
C1066       C  0.64815531  0.72562125  0.24815237    -0.02900
C1067       C  0.59055905  0.70073134  0.19729701     0.36400
C1068       C  0.62229713  0.74453005  0.24380654     0.40000
C1069       C  0.51124463  0.71571047  0.18435459     0.39100
C1070       C  0.69367016  0.72891111  0.27171549     0.36000
C1071       C  0.73701640  0.71234212  0.19352595     0.36700
C1072       C  0.68479362  0.68556203  0.33998946     0.40000
N1073       N  0.47520949  0.71257666  0.16657342    -0.38100
N1074       N  0.58625416  0.69198553  0.18457047    -0.39700
N1075       N  0.63181640  0.75354019  0.24710191    -0.37400
N1076       N  0.72989673  0.73152291  0.29065374    -0.39800
N1077       N  0.57759168  0.70215593  0.32666723    -0.39600
N1078       N  0.67159697  0.68012786  0.36872564    -0.37200
N1079       N  0.85168481  0.70035645  0.21536022    -0.38300
N1080       N  0.74648033  0.71761019  0.16312467    -0.39900
C1081       C  0.83954378  0.70224913  0.47908247    -0.04900
C1082       C  0.88292868  0.70868863  0.47635727     0.09300
C1083       C  0.90833148  0.70937880  0.43502682    -0.02300
C1084       C  0.89411366  0.70269773  0.39820729    -0.00500
C1085       C  0.85431747  0.69515524  0.40276612    -0.04100
C1086       C  0.82435974  0.69583563  0.44208842     0.02900
C1087       C  0.90370256  0.71397074  0.51817354     0.09700
C1088       C  0.94956976  0.71691940  0.43077840     0.35600
C1089       C  0.77587765  0.69053152  0.44377565     0.39100
C1090       C  0.94446970  0.70922992  0.54051070    -0.04500
C1091       C  0.95962649  0.71298921  0.58338147     0.02700
C1092       C  0.93400203  0.72167699  0.60507314    -0.04100
C1093       C  0.89486057  0.72683441  0.58075490    -0.00300
C1094       C  0.88033508  0.72303245  0.53752504    -0.02900
C1095       C  0.97117160  0.70040242  0.51899561     0.36400
C1096       C  0.86825052  0.73596790  0.59947453     0.40000
C1097       C  0.00230865  0.70776614  0.60409888     0.39100
C1098       C  0.84161167  0.72852510  0.51232054     0.36000
C1099       C  0.81112966  0.70201178  0.52059972     0.36700
C1100       C  0.91999516  0.70400805  0.35599980     0.40000
N1101       N  0.03573439  0.70326557  0.62009764    -0.38100
N1102       N  0.99278410  0.69346198  0.50157311    -0.39700
N1103       N  0.84662987  0.74341820  0.61257117    -0.37400
N1104       N  0.81108347  0.73294496  0.49195724    -0.39800
N1105       N  0.98232548  0.72296859  0.42742766    -0.39600
N1106       N  0.94047429  0.70557791  0.32250349    -0.37200
N1107       N  0.73648345  0.68660754  0.44579341    -0.38300
N1108       N  0.78858565  0.70185811  0.55376514    -0.39900
C1109       C  0.78945081  0.64114114  0.40258370    -0.04900
C1110       C  0.79495114  0.63372870  0.36697497     0.09300
C1111       C  0.80202085  0.63746187  0.32337006    -0.02300
C1112       C  0.80587446  0.64852197  0.31544940    -0.00500
C1113       C  0.80672227  0.65618332  0.35174380    -0.04100
C1114       C  0.79407841  0.65228240  0.39516260     0.02900
C1115       C  0.79073605  0.62191977  0.37445231     0.09700
C1116       C  0.80539276  0.62979227  0.28629501     0.35600
C1117       C  0.78014163  0.65937567  0.43183337     0.39100
C1118       C  0.74486081  0.61656942  0.36548779    -0.04500
C1119       C  0.74204356  0.60532574  0.36806649     0.02700
C1120       C  0.78522427  0.59930568  0.37970416    -0.04100
C1121       C  0.83100868  0.60470459  0.38921212    -0.00300
C1122       C  0.83368999  0.61596461  0.38654843    -0.02900
C1123       C  0.70093876  0.62264689  0.35204536     0.36400
C1124       C  0.87527902  0.59871251  0.40234802     0.40000
C1125       C  0.69524879  0.59993304  0.35625425     0.39100
C1126       C  0.88100904  0.62144901  0.39512830     0.36000
C1127       C  0.77773390  0.63723366  0.44695163     0.36700
C1128       C  0.80776311  0.65173629  0.26902984     0.40000
N1129       N  0.65803989  0.59561683  0.34666563    -0.38100
N1130       N  0.66603230  0.62749964  0.34105255    -0.39700
N1131       N  0.91063687  0.59394056  0.41283861    -0.37400
N1132       N  0.91871120  0.62586099  0.40184174    -0.39800
N1133       N  0.80805350  0.62364958  0.25693052    -0.39600
N1134       N  0.80925759  0.65369466  0.23130352    -0.37200
N1135       N  0.76845345  0.66461639  0.46242020    -0.38300
N1136       N  0.76822704  0.63411317  0.48226674    -0.39900
C1137       C  0.33949444  0.71729534  0.17539846    -0.04900
C1138       C  0.33722520  0.71614204  0.12828267     0.09300
C1139       C  0.36695614  0.72286402  0.10140258    -0.02300
C1140       C  0.39733306  0.73092162  0.12135447    -0.00500
C1141       C  0.40138627  0.73181242  0.16865330    -0.04100
C1142       C  0.37312356  0.72468945  0.19549684     0.02900
C1143       C  0.30369184  0.70781545  0.10680898     0.09700
C1144       C  0.36685307  0.72135333  0.05302231     0.35600
C1145       C  0.38077901  0.72436578  0.24370042     0.39100
C1146       C  0.26153992  0.71090289  0.08138971    -0.04500
C1147       C  0.23265466  0.70318577  0.05741933     0.02700
C1148       C  0.24321515  0.69202743  0.06152167    -0.04100
C1149       C  0.28125106  0.68908535  0.09298033    -0.00300
C1150       C  0.31348558  0.69686127  0.11241639    -0.02900
C1151       C  0.24758404  0.72213536  0.08036844     0.36400
C1152       C  0.28531597  0.67821205  0.10889525     0.40000
C1153       C  0.19218272  0.70716458  0.02965943     0.39100
C1154       C  0.35701219  0.69354946  0.13835994     0.36000
C1155       C  0.30736745  0.71079186  0.20336908     0.36700
C1156       C  0.42356339  0.73835827  0.09279171     0.40000
N1157       N  0.15970649  0.71080405  0.00886324    -0.38100
N1158       N  0.23632741  0.73106943  0.07978035    -0.39700
N1159       N  0.28889550  0.66957266  0.12184996    -0.37400
N1160       N  0.39167711  0.69092813  0.15909346    -0.39800
N1161       N  0.36671378  0.72009110  0.01447344    -0.39600
N1162       N  0.44425026  0.74421723  0.06948566    -0.37200
N1163       N  0.38694142  0.72406631  0.28211330    -0.38300
N1164       N  0.28188831  0.70558480  0.22567716    -0.39900
C1165       C  0.00730419  0.70755272  0.83082966    -0.04900
C1166       C  0.05648432  0.70331534  0.82834349     0.09300
C1167       C  0.08347704  0.70424685  0.78790454    -0.02300
C1168       C  0.06474204  0.71061027  0.75281485    -0.00500
C1169       C  0.01732296  0.71588692  0.75691836    -0.04100
C1170       C  0.98639250  0.71290355  0.79381662     0.02900
C1171       C  0.07981544  0.69761300  0.86738519     0.09700
C1172       C  0.13081794  0.69853480  0.78229707     0.35600
C1173       C  0.93221760  0.71455199  0.79288212     0.39100
C1174       C  0.05880465  0.68799651  0.88332014    -0.04500
C1175       C  0.08108092  0.68278730  0.92001752     0.02700
C1176       C  0.12779576  0.68636885  0.93751337    -0.04100
C1177       C  0.15099990  0.69540127  0.91895405    -0.00300
C1178       C  0.12521409  0.70148499  0.88680819    -0.02900
C1179       C  0.01533858  0.68322678  0.86111436     0.36400
C1180       C  0.20291927  0.69794591  0.93012226     0.40000
C1181       C  0.05503926  0.67392721  0.94046015     0.39100
C1182       C  0.14572209  0.71170002  0.87346767     0.36000
C1183       C  0.97815670  0.70655706  0.87169464     0.36700
C1184       C  0.09418270  0.71102453  0.71215312     0.40000
N1185       N  0.03290544  0.66710140  0.95720770    -0.38100
N1186       N  0.98075911  0.67938843  0.84338074    -0.39700
N1187       N  0.24461492  0.69988538  0.93842954    -0.37400
N1188       N  0.16191545  0.71987490  0.86295033    -0.39800
N1189       N  0.16855329  0.69400245  0.77794905    -0.39600
N1190       N  0.11991489  0.71106612  0.68091954    -0.37200
N1191       N  0.88899805  0.71581537  0.79219330    -0.38300
N1192       N  0.95484357  0.70573908  0.90422443    -0.39900
C1193       C  0.00011548  0.68283124  0.23569677    -0.04900
C1194       C  0.98613018  0.67983238  0.19143725     0.09300
C1195       C  0.93537406  0.67725948  0.18180908    -0.02300
C1196       C  0.89883305  0.67795684  0.21583176    -0.00500
C1197       C  0.91329015  0.68045360  0.26050689    -0.04100
C1198       C  0.96445199  0.68240680  0.27056179     0.02900
C1199       C  0.02523810  0.67869648  0.15554602     0.09700
C1200       C  0.92097871  0.67349368  0.13723488     0.35600
C1201       C  0.98115666  0.68303873  0.31688724     0.39100
C1202       C  0.06292923  0.67081970  0.15887844    -0.04500
C1203       C  0.10123670  0.67008194  0.12637141     0.02700
C1204       C  0.09748935  0.67591281  0.08590276    -0.04100
C1205       C  0.05718005  0.68333962  0.08156336    -0.00300
C1206       C  0.02375789  0.68522612  0.11754732    -0.02900
C1207       C  0.06158215  0.66326568  0.19532852     0.36400
C1208       C  0.04792022  0.68893816  0.04018563     0.40000
C1209       C  0.14559112  0.66378503  0.13663117     0.39100
C1210       C  0.98740689  0.69388569  0.11537161     0.36000
C1211       C  0.05141246  0.68616738  0.24547142     0.36700
C1212       C  0.84634561  0.67598618  0.20460882     0.40000
N1213       N  0.18085907  0.65878254  0.14536395    -0.38100
N1214       N  0.05995411  0.65719080  0.22414776    -0.39700
N1215       N  0.03932702  0.69369493  0.00809826    -0.37400
N1216       N  0.95851859  0.70079636  0.11366111    -0.39800
N1217       N  0.90955921  0.67048624  0.10170880    -0.39600
N1218       N  0.80450890  0.67470743  0.19475746    -0.37200
N1219       N  0.99460281  0.68338052  0.35385251    -0.38300
N1220       N  0.09230353  0.68887334  0.25316347    -0.39900
C1221       C  0.28749388  0.61460749  0.96943665    -0.04900
C1222       C  0.27259332  0.62116336  0.00593108     0.09300
C1223       C  0.26858639  0.61676663  0.04904902    -0.02300
C1224       C  0.27833387  0.60579590  0.05554675    -0.00500
C1225       C  0.29284727  0.59913282  0.01887926    -0.04100
C1226       C  0.29785899  0.60367014  0.97580094     0.02900
C1227       C  0.25571340  0.63241081  0.99815898     0.09700
C1228       C  0.25334672  0.62354976  0.08658426     0.35600
C1229       C  0.31090653  0.59701038  0.93722206     0.39100
C1230       C  0.20414556  0.63451321  0.99189067    -0.04500
C1231       C  0.18721359  0.64509748  0.98687541     0.02700
C1232       C  0.22121809  0.65384745  0.99198317    -0.04100
C1233       C  0.27360673  0.65146058  0.98928494    -0.00300
C1234       C  0.29068554  0.64083160  0.99449240    -0.02900
C1235       C  0.16829107  0.62573432  0.99140908     0.36400
C1236       C  0.30933581  0.65939958  0.97436720     0.40000
C1237       C  0.13474498  0.64682795  0.97554127     0.39100
C1238       C  0.34423805  0.63853374  0.99593995     0.36000
C1239       C  0.29009951  0.61906159  0.92487200     0.36700
C1240       C  0.27353741  0.60144467  0.10014035     0.40000
N1241       N  0.09278406  0.64791481  0.96609536    -0.38100
N1242       N  0.13983842  0.61871611  0.99128300    -0.39700
N1243       N  0.33810361  0.66564414  0.96192352    -0.37400
N1244       N  0.38696247  0.63668950  0.99708142    -0.39800
N1245       N  0.24109628  0.62899353  0.11637668    -0.39600
N1246       N  0.26939229  0.59800561  0.13574753    -0.37200
N1247       N  0.32122368  0.59170971  0.90640261    -0.38300
N1248       N  0.29195918  0.62262768  0.88934521    -0.39900
C1249       C  0.24254987  0.86368032  0.53770175    -0.04900
C1250       C  0.26274424  0.85738509  0.57221666     0.09300
C1251       C  0.27357351  0.86220140  0.61433680    -0.02300
C1252       C  0.26395703  0.87319994  0.62209321    -0.00500
C1253       C  0.24418647  0.87959605  0.58741076    -0.04100
C1254       C  0.23316128  0.87469108  0.54518669     0.02900
C1255       C  0.27287838  0.84565698  0.56440092     0.09700
C1256       C  0.29460843  0.85576706  0.64984275     0.35600
C1257       C  0.21288158  0.88094754  0.50878712     0.39100
C1258       C  0.32256695  0.84197073  0.55875304    -0.04500
C1259       C  0.33278181  0.83088847  0.55557193     0.02700
C1260       C  0.29307852  0.82318216  0.55858830    -0.04100
C1261       C  0.24270148  0.82717595  0.55659209    -0.00300
C1262       C  0.23293125  0.83824593  0.56214474    -0.02900
C1263       C  0.36349756  0.84966657  0.55680837     0.36400
C1264       C  0.20069681  0.82036788  0.54383678     0.40000
C1265       C  0.38485339  0.82762656  0.54971713     0.39100
C1266       C  0.18137521  0.84204876  0.56569738     0.36000
C1267       C  0.23195452  0.85882534  0.49412788     0.36700
C1268       C  0.27222986  0.87774990  0.66658072     0.40000
N1269       N  0.42684758  0.82526609  0.54626400    -0.38100
N1270       N  0.39606628  0.85581118  0.55533899    -0.39700
N1271       N  0.16628945  0.81517219  0.53356525    -0.37400
N1272       N  0.14031715  0.84510196  0.56852424    -0.39800
N1273       N  0.31174618  0.85059577  0.67786062    -0.39600
N1274       N  0.27854189  0.88130933  0.70224552    -0.37200
N1275       N  0.19633716  0.88588189  0.47974715    -0.38300
N1276       N  0.22328584  0.85495165  0.45942652    -0.39900
C1277       C  0.39110130  0.94744876  0.39453499    -0.04900
C1278       C  0.34094741  0.94544890  0.38122590     0.09300
C1279       C  0.32494723  0.94844727  0.33829368    -0.02300
C1280       C  0.35807771  0.95393631  0.30967565    -0.00500
C1281       C  0.40656927  0.95739901  0.32523574    -0.04100
C1282       C  0.42436274  0.95298968  0.36612675     0.02900
C1283       C  0.30620126  0.93957788  0.41181905     0.09700
C1284       C  0.27415415  0.94584706  0.32354167     0.35600
C1285       C  0.47757576  0.95291539  0.37725934     0.39100
C1286       C  0.28059962  0.94517323  0.44632046    -0.04500
C1287       C  0.25389364  0.93952055  0.47927711     0.02700
C1288       C  0.25326531  0.92820847  0.47820054    -0.04100
C1289       C  0.27653695  0.92265401  0.44217981    -0.00300
C1290       C  0.30238017  0.92833364  0.40877470    -0.02900
C1291       C  0.28390107  0.95674199  0.44902469     0.36400
C1292       C  0.27514977  0.91106770  0.44017387     0.40000
C1293       C  0.23068048  0.94534404  0.51631935     0.39100
C1294       C  0.32670781  0.92260126  0.37211189     0.36000
C1295       C  0.40866117  0.94360058  0.43752799     0.36700
C1296       C  0.34277567  0.95532115  0.26332649     0.40000
N1297       N  0.21236238  0.95000016  0.54592503    -0.38100
N1298       N  0.28679151  0.96596879  0.45117282    -0.39700
N1299       N  0.27433690  0.90182062  0.43847072    -0.37400
N1300       N  0.34594552  0.91804426  0.34271521    -0.39800
N1301       N  0.23361349  0.94380197  0.31179199    -0.39600
N1302       N  0.33042308  0.95641407  0.22641417    -0.37200
N1303       N  0.51994952  0.95272579  0.38660076    -0.38300
N1304       N  0.42235749  0.94052657  0.47186912    -0.39900
C1305       C  0.75736853  0.86392729  0.91254453    -0.04900
C1306       C  0.70999568  0.85881826  0.90984289     0.09300
C1307       C  0.66568604  0.86505714  0.91053744    -0.02300
C1308       C  0.66863853  0.87634381  0.91363519    -0.00500
C1309       C  0.71613495  0.88151250  0.91544817    -0.04100
C1310       C  0.76053490  0.87519468  0.91451673     0.02900
C1311       C  0.70690343  0.84683979  0.90545958     0.09700
C1312       C  0.61697701  0.85980308  0.90828413     0.35600
C1313       C  0.80981475  0.88025119  0.91378395     0.39100
C1314       C  0.69812313  0.84055403  0.94333068    -0.04500
C1315       C  0.69633261  0.82925022  0.93937663     0.02700
C1316       C  0.69834104  0.82406374  0.89624649    -0.04100
C1317       C  0.71420766  0.83048562  0.85977997    -0.00300
C1318       C  0.71680173  0.84174166  0.86404810    -0.02900
C1319       C  0.69251819  0.84577880  0.98690257     0.36400
C1320       C  0.73339840  0.82562254  0.81892244     0.40000
C1321       C  0.70061587  0.82333234  0.98051480     0.39100
C1322       C  0.73051538  0.84813275  0.82571822     0.36000
C1323       C  0.80300476  0.85754554  0.91359914     0.36700
C1324       C  0.62265818  0.88257197  0.91650114     0.40000
N1325       N  0.70448627  0.81890087  0.01412991    -0.38100
N1326       N  0.68798878  0.84996395  0.02157456    -0.39700
N1327       N  0.75138926  0.82214588  0.78655589    -0.37400
N1328       N  0.74170538  0.85322993  0.79526598    -0.39800
N1329       N  0.57822504  0.85555785  0.90659391    -0.39600
N1330       N  0.58587497  0.88751352  0.91897551    -0.37200
N1331       N  0.84908159  0.88428595  0.91300640    -0.38300
N1332       N  0.83940200  0.85245989  0.91462870    -0.39900
C1333       C  0.95803526  0.92246764  0.82329545    -0.04900
C1334       C  0.95945335  0.91532581  0.78614824     0.09300
C1335       C  0.91878502  0.90830195  0.77804317    -0.02300
C1336       C  0.87720457  0.90826861  0.80731580    -0.00500
C1337       C  0.87472546  0.91567118  0.84373531    -0.04100
C1338       C  0.91545778  0.92276551  0.85165868     0.02900
C1339       C  0.00377619  0.91517449  0.75523080     0.09700
C1340       C  0.91941297  0.90123664  0.73894559     0.35600
C1341       C  0.91273398  0.93069359  0.88764435     0.39100
C1342       C  0.04360732  0.90794366  0.76223650    -0.04500
C1343       C  0.08524998  0.90770471  0.73287681     0.02700
C1344       C  0.08660673  0.91449798  0.69523743    -0.04100
C1345       C  0.04632412  0.92172908  0.68836406    -0.00300
C1346       C  0.00514807  0.92204337  0.71826028    -0.02900
C1347       C  0.04100164  0.90055757  0.79918977     0.36400
C1348       C  0.04790637  0.92917845  0.65161963     0.40000
C1349       C  0.12614787  0.90029656  0.74130020     0.39100
C1350       C  0.96365916  0.92935663  0.71080464     0.36000
C1351       C  0.00019893  0.92960718  0.83185701     0.36700
C1352       C  0.83774183  0.90034265  0.80066715     0.40000
N1353       N  0.15888334  0.89444037  0.74833166    -0.38100
N1354       N  0.03860325  0.89460516  0.82841385    -0.39700
N1355       N  0.04915790  0.93514966  0.62240301    -0.37400
N1356       N  0.93039661  0.93515176  0.70492866    -0.39800
N1357       N  0.91976773  0.89568282  0.70750636    -0.39600
N1358       N  0.80641178  0.89398481  0.79565586    -0.37200
N1359       N  0.91041687  0.93705832  0.91619947    -0.38300
N1360       N  0.03390683  0.93528852  0.83870132    -0.39900
C1361       C  0.55020871  0.95068278  0.12813441    -0.04900
C1362       C  0.59737873  0.94723524  0.14452930     0.09300
C1363       C  0.61152286  0.94971415  0.18908944    -0.02300
C1364       C  0.57831463  0.95547356  0.21738260    -0.00500
C1365       C  0.53149835  0.95913903  0.20072057    -0.04100
C1366       C  0.51707370  0.95648627  0.15635284     0.02900
C1367       C  0.63145349  0.94076385  0.11479005     0.09700
C1368       C  0.66013390  0.94624667  0.20578061     0.35600
C1369       C  0.46691165  0.95912219  0.14067127     0.39100
C1370       C  0.66874219  0.94587478  0.08926434    -0.04500
C1371       C  0.69596508  0.94004728  0.05642043     0.02700
C1372       C  0.68637098  0.92900027  0.04936729    -0.04100
C1373       C  0.65117501  0.92377633  0.07702110    -0.00300
C1374       C  0.62401567  0.92963749  0.10977365    -0.02900
C1375       C  0.67758068  0.95724355  0.09577124     0.36400
C1376       C  0.64204299  0.91239893  0.07108581     0.40000
C1377       C  0.73050607  0.94566864  0.02739419     0.39100
C1378       C  0.58743633  0.92428479  0.13766653     0.36000
C1379       C  0.53566047  0.94812856  0.08224886     0.36700
C1380       C  0.59157133  0.95727681  0.26416172     0.40000
N1381       N  0.75770732  0.95020376  0.00410408    -0.38100
N1382       N  0.68453271  0.96630669  0.10127330    -0.39700
N1383       N  0.63469172  0.90333236  0.06614869    -0.37400
N1384       N  0.55834028  0.92001007  0.16000770    -0.39800
N1385       N  0.69907468  0.94351176  0.21887089    -0.39600
N1386       N  0.60214832  0.95866350  0.30149840    -0.37200
N1387       N  0.42669768  0.96112173  0.12823765    -0.38300
N1388       N  0.52429445  0.94607900  0.04559319    -0.39900
C1389       C  0.36063662  0.98139345  0.67236655    -0.04900
C1390       C  0.36521258  0.97200874  0.69742717     0.09300
C1391       C  0.39374392  0.97216357  0.73710741    -0.02300
C1392       C  0.41930531  0.98152591  0.75121735    -0.00500
C1393       C  0.41855993  0.99090842  0.72437488    -0.04100
C1394       C  0.38660615  0.99081099  0.68583987     0.02900
C1395       C  0.33982971  0.96182303  0.68284755     0.09700
C1396       C  0.39695959  0.96249838  0.76349553     0.35600
C1397       C  0.37762074  0.00052883  0.66117169     0.39100
C1398       C  0.36843488  0.95354566  0.66268150    -0.04500
C1399       C  0.34610737  0.94353248  0.65276602     0.02700
C1400       C  0.29458867  0.94177313  0.66236120    -0.04100
C1401       C  0.26631022  0.95003455  0.68355863    -0.00300
C1402       C  0.28882121  0.96002272  0.69350857    -0.02900
C1403       C  0.42102992  0.95540408  0.65205037     0.36400
C1404       C  0.21441265  0.94815838  0.69668712     0.40000
C1405       C  0.37609709  0.93517287  0.63168877     0.39100
C1406       C  0.25965644  0.96844848  0.71512438     0.36000
C1407       C  0.32933162  0.98129613  0.63239074     0.36700
C1408       C  0.44434953  0.98109745  0.79427898     0.40000
N1409       N  0.40023775  0.92850158  0.61510710    -0.38100
N1410       N  0.46295913  0.95695092  0.64370711    -0.39700
N1411       N  0.17312683  0.94663617  0.70733488    -0.37400
N1412       N  0.23636807  0.97518838  0.73219783    -0.39800
N1413       N  0.39962203  0.95477567  0.78420947    -0.39600
N1414       N  0.46179217  0.98025330  0.82966594    -0.37200
N1415       N  0.37008228  0.00826660  0.64149329    -0.38300
N1416       N  0.30425645  0.98119091  0.60055830    -0.39900
C1417       C  0.58574290  0.97561433  0.78860517    -0.04900
C1418       C  0.59734098  0.97488983  0.83451543     0.09300
C1419       C  0.58603759  0.98350130  0.86401643    -0.02300
C1420       C  0.56275538  0.99281909  0.84750991    -0.00500
C1421       C  0.55084996  0.99353300  0.80148807    -0.04100
C1422       C  0.56256121  0.98484698  0.77205510     0.02900
C1423       C  0.62120465  0.96488041  0.85100430     0.09700
C1424       C  0.59781316  0.98268865  0.91133058     0.35600
C1425       C  0.54829573  0.98498485  0.72505503     0.39100
C1426       C  0.67406993  0.96386943  0.85077534    -0.04500
C1427       C  0.69671012  0.95397614  0.86048723     0.02700
C1428       C  0.66647468  0.94499363  0.87101450    -0.04100
C1429       C  0.61334414  0.94607818  0.87123915    -0.00300
C1430       C  0.59091760  0.95597628  0.86114711    -0.02900
C1431       C  0.70508071  0.97299160  0.83937341     0.36400
C1432       C  0.58142563  0.93712667  0.88290220     0.40000
C1433       C  0.75117164  0.95300826  0.85788976     0.39100
C1434       C  0.53645141  0.95697329  0.86054695     0.36000
C1435       C  0.59694535  0.96668818  0.75844368     0.36700
C1436       C  0.55024684  0.00156636  0.87793817     0.40000
N1437       N  0.79458565  0.95224526  0.85573582    -0.38100
N1438       N  0.72970353  0.98027589  0.83022920    -0.39700
N1439       N  0.55582240  0.93000082  0.89212172    -0.37400
N1440       N  0.49297283  0.95768594  0.86007427    -0.39800
N1441       N  0.60716166  0.98203805  0.94912769    -0.39600
N1442       N  0.54021756  0.00849072  0.90253882    -0.37200
N1443       N  0.53692811  0.98472743  0.68753755    -0.38300
N1444       N  0.60581787  0.95954384  0.73459590    -0.39900
C1445       C  0.30274858  0.11687862  0.09636978    -0.04900
C1446       C  0.28291788  0.12174466  0.05778678     0.09300
C1447       C  0.25299544  0.11563831  0.02775458    -0.02300
C1448       C  0.24077414  0.10491070  0.03726066    -0.00500
C1449       C  0.26037824  0.09993341  0.07618751    -0.04100
C1450       C  0.29255980  0.10600225  0.10509488     0.02900
C1451       C  0.29410002  0.13330076  0.04861744     0.09700
C1452       C  0.23559947  0.12037445  0.98637119     0.35600
C1453       C  0.31515506  0.10120329  0.14426917     0.39100
C1454       C  0.34208147  0.13636988  0.03336149    -0.04500
C1455       C  0.35362203  0.14728902  0.02774732     0.02700
C1456       C  0.31788989  0.15538987  0.03918767    -0.04100
C1457       C  0.26716816  0.15202528  0.04536632    -0.00300
C1458       C  0.25610935  0.14113571  0.05286208    -0.02900
C1459       C  0.37952700  0.12824661  0.02303566     0.36400
C1460       C  0.22539299  0.15911500  0.03635979     0.40000
C1461       C  0.40104072  0.15006251  0.00681219     0.39100
C1462       C  0.20524735  0.13797438  0.06457459     0.36000
C1463       C  0.33349778  0.12315258  0.12739648     0.36700
C1464       C  0.20891891  0.09901137  0.00585842     0.40000
N1465       N  0.43795081  0.15217046  0.98832615    -0.38100
N1466       N  0.40938217  0.12177210  0.01475797    -0.39700
N1467       N  0.19155616  0.16461739  0.02844468    -0.37400
N1468       N  0.16464656  0.13544543  0.07376899    -0.39800
N1469       N  0.22191343  0.12415808  0.95334124    -0.39600
N1470       N  0.18323901  0.09437693  0.98080738    -0.37200
N1471       N  0.33375645  0.09741223  0.17535391    -0.38300
N1472       N  0.35798950  0.12819318  0.15201582    -0.39900
C1473       C  0.37844323  0.00782971  0.25013769    -0.04900
C1474       C  0.38043876  0.01095535  0.20509405     0.09300
C1475       C  0.40445104  0.00428945  0.17308570    -0.02300
C1476       C  0.42461847  0.99432317  0.18575439    -0.00500
C1477       C  0.41839519  0.99065995  0.23014536    -0.04100
C1478       C  0.39635607  0.99770070  0.26259761     0.02900
C1479       C  0.35441846  0.02098391  0.19102028     0.09700
C1480       C  0.40770658  0.00765698  0.12682871     0.35600
C1481       C  0.39163922  0.99470163  0.30916189     0.39100
C1482       C  0.38234534  0.03021958  0.18072332    -0.04500
C1483       C  0.35752642  0.03948735  0.16567290     0.02700
C1484       C  0.30437365  0.03960829  0.16114953    -0.04100
C1485       C  0.27641462  0.03038161  0.17277990    -0.00300
C1486       C  0.30136608  0.02116663  0.18785665    -0.02900
C1487       C  0.43677085  0.03013770  0.18539364     0.36400
C1488       C  0.22177241  0.03027687  0.16949060     0.40000
C1489       C  0.38716663  0.04866477  0.15261668     0.39100
C1490       C  0.27237253  0.01181166  0.20019113     0.36000
C1491       C  0.35753692  0.01509000  0.28374860     0.36700
C1492       C  0.45189876  0.98800499  0.15270795     0.40000
N1493       N  0.41085391  0.05597227  0.14204727    -0.38100
N1494       N  0.48021105  0.03005722  0.18900719    -0.39700
N1495       N  0.17824748  0.03010737  0.16666677    -0.37400
N1496       N  0.24936867  0.00438369  0.21049591    -0.39800
N1497       N  0.41031779  0.01038665  0.09000346    -0.39600
N1498       N  0.47466882  0.98335817  0.12569532    -0.37200
N1499       N  0.38616771  0.99236679  0.34621464    -0.38300
N1500       N  0.34102232  0.02088455  0.31056519    -0.39900
C1501       C  0.30174446  0.03410652  0.94300815    -0.04900
C1502       C  0.32537824  0.03955989  0.90773051     0.09300
C1503       C  0.31880614  0.05071126  0.90388425    -0.02300
C1504       C  0.29103728  0.05646072  0.93658771    -0.00500
C1505       C  0.26857921  0.05104443  0.97259869    -0.04100
C1506       C  0.27284478  0.03980223  0.97500497     0.02900
C1507       C  0.35912713  0.03357964  0.87594619     0.09700
C1508       C  0.34199539  0.05629514  0.86701329     0.35600
C1509       C  0.25078965  0.03415159  0.01230576     0.39100
C1510       C  0.33834522  0.02683414  0.84231555    -0.04500
C1511       C  0.37020421  0.02077339  0.81388912     0.02700
C1512       C  0.42310449  0.02183066  0.81749608    -0.04100
C1513       C  0.44385573  0.02877011  0.85054958    -0.00300
C1514       C  0.41199839  0.03442459  0.88036322    -0.02900
C1515       C  0.28407969  0.02634658  0.83637677     0.36400
C1516       C  0.49805742  0.03015195  0.85366030     0.40000
C1517       C  0.34814771  0.01368152  0.78028958     0.39100
C1518       C  0.43355756  0.04109249  0.91578470     0.36000
C1519       C  0.30967666  0.02270370  0.94781452     0.36700
C1520       C  0.28642654  0.06798833  0.93380786     0.40000
N1521       N  0.32936453  0.00804451  0.75400883    -0.38100
N1522       N  0.24080049  0.02602936  0.83154011    -0.39700
N1523       N  0.54129194  0.03130669  0.85579649    -0.37400
N1524       N  0.45064664  0.04640793  0.94411284    -0.39800
N1525       N  0.36067158  0.06074454  0.83765639    -0.39600
N1526       N  0.28278976  0.07718762  0.93175141    -0.37200
N1527       N  0.23340750  0.02958762  0.04197633    -0.38300
N1528       N  0.31631977  0.01362210  0.95167652    -0.39900
C1529       C  0.71090652  0.11770069  0.36147455    -0.04900
C1530       C  0.72799611  0.12356227  0.39938774     0.09300
C1531       C  0.74156753  0.11812211  0.43858428    -0.02300
C1532       C  0.73842218  0.10686688  0.43990594    -0.00500
C1533       C  0.72362086  0.10085608  0.40119372    -0.04100
C1534       C  0.70921548  0.10640992  0.36205390     0.02900
C1535       C  0.72863029  0.13555316  0.39886791     0.09700
C1536       C  0.75847378  0.12416452  0.47778973     0.35600
C1537       C  0.69364205  0.10061067  0.32179382     0.39100
C1538       C  0.68431947  0.14124249  0.40824716    -0.04500
C1539       C  0.68333566  0.15247111  0.40504654     0.02700
C1540       C  0.72699380  0.15835834  0.39138264    -0.04100
C1541       C  0.77319553  0.15251347  0.38758076    -0.00300
C1542       C  0.77330059  0.14118520  0.38992771    -0.02900
C1543       C  0.63916183  0.13543098  0.42076573     0.36400
C1544       C  0.82169436  0.15772204  0.38460441     0.40000
C1545       C  0.63627229  0.15782476  0.41590312     0.39100
C1546       C  0.81965246  0.13520720  0.38312160     0.36000
C1547       C  0.69492863  0.12335413  0.32177936     0.36700
C1548       C  0.74841608  0.10157909  0.48198030     0.40000
N1549       N  0.59856352  0.16191475  0.42528473    -0.38100
N1550       N  0.60329396  0.13077432  0.43073362    -0.39700
N1551       N  0.86164657  0.16142379  0.38270727    -0.37400
N1552       N  0.85645920  0.13039540  0.37778658    -0.39800
N1553       N  0.77219764  0.12898922  0.50896173    -0.39600
N1554       N  0.75602987  0.09738262  0.51563772    -0.37200
N1555       N  0.68108712  0.09603827  0.28957650    -0.38300
N1556       N  0.68192980  0.12789651  0.29029245    -0.39900
C1557       C  0.96406130  0.06861291  0.31223059    -0.04900
C1558       C  0.96518963  0.06165920  0.27436739     0.09300
C1559       C  0.92399600  0.05477163  0.26575529    -0.02300
C1560       C  0.88068887  0.05531504  0.29302557    -0.00500
C1561       C  0.87894107  0.06247182  0.33028829    -0.04100
C1562       C  0.92123818  0.06896511  0.34030141     0.02900
C1563       C  0.00835254  0.06207048  0.24197635     0.09700
C1564       C  0.92595663  0.04721693  0.22832228     0.35600
C1565       C  0.91941884  0.07655741  0.37758124     0.39100
C1566       C  0.05574408  0.05780428  0.25347615    -0.04500
C1567       C  0.09672762  0.05860987  0.22361920     0.02700
C1568       C  0.09077427  0.06373546  0.18181976    -0.04100
C1569       C  0.04261709  0.06759739  0.16960539    -0.00300
C1570       C  0.00179847  0.06685959  0.19975097    -0.02900
C1571       C  0.06231446  0.05257107  0.29617396     0.36400
C1572       C  0.03501484  0.07259056  0.12656060     0.40000
C1573       C  0.14461520  0.05379375  0.23551932     0.39100
C1574       C  0.95302046  0.07122247  0.18771067     0.36000
C1575       C  0.00638009  0.07567598  0.32139074     0.36700
C1576       C  0.83754005  0.04859929  0.28215910     0.40000
N1577       N  0.18273971  0.04993398  0.24500520    -0.38100
N1578       N  0.06769549  0.04844390  0.33030948    -0.39700
N1579       N  0.02861738  0.07653222  0.09216406    -0.37400
N1580       N  0.91397097  0.07464996  0.17826927    -0.39800
N1581       N  0.92747034  0.04119261  0.19846324    -0.39600
N1582       N  0.80295111  0.04333317  0.27315816    -0.37200
N1583       N  0.91788939  0.08265986  0.40716365    -0.38300
N1584       N  0.04029692  0.08127081  0.32868110    -0.39900
C1585       C  0.60057092  0.00142529  0.28017537    -0.04900
C1586       C  0.58834906  0.00789848  0.31753170     0.09300
C1587       C  0.55555510  0.00397415  0.35036271    -0.02300
C1588       C  0.53184498  0.99391930  0.34427503    -0.00500
C1589       C  0.54233071  0.98742928  0.30544268    -0.04100
C1590       C  0.58056972  0.99102435  0.27578581     0.02900
C1591       C  0.61485164  0.01835227  0.32466812     0.09700
C1592       C  0.54640185  0.01034975  0.39071960     0.35600
C1593       C  0.60216864  0.98398905  0.24179906     0.39100
C1594       C  0.58966143  0.02813354  0.31811783    -0.04500
C1595       C  0.61522185  0.03792965  0.32558089     0.02700
C1596       C  0.66633873  0.03797064  0.33982902    -0.04100
C1597       C  0.69212243  0.02806274  0.34323630    -0.00300
C1598       C  0.66598440  0.01835949  0.33737042    -0.02900
C1599       C  0.53683768  0.02808982  0.30535898     0.36400
C1600       C  0.74594793  0.02770481  0.35214187     0.40000
C1601       C  0.58787567  0.04787447  0.32042057     0.39100
C1602       C  0.69125534  0.00830303  0.34610655     0.36000
C1603       C  0.63386664  0.00556214  0.24593229     0.36700
C1604       C  0.49779882  0.99052985  0.37915130     0.40000
N1605       N  0.56592274  0.05579515  0.31636968    -0.38100
N1606       N  0.49455407  0.02805321  0.29569290    -0.39700
N1607       N  0.78886515  0.02733539  0.35904378    -0.37400
N1608       N  0.71101050  0.00026564  0.35332856    -0.39800
N1609       N  0.53924779  0.01542432  0.42289054    -0.39600
N1610       N  0.47166913  0.98803585  0.40822739    -0.37200
N1611       N  0.62056299  0.97871911  0.21409233    -0.38300
N1612       N  0.66014672  0.00895381  0.21869423    -0.39900
C1613       C  0.65657736  0.04888853  0.59904928    -0.04900
C1614       C  0.61583883  0.04201272  0.58830422     0.09300
C1615       C  0.59980708  0.04090815  0.54336319    -0.02300
C1616       C  0.62389722  0.04666305  0.50939620    -0.00500
C1617       C  0.66519450  0.05348608  0.51976022    -0.04100
C1618       C  0.68130875  0.05459034  0.56484536     0.02900
C1619       C  0.59078846  0.03539031  0.62333309     0.09700
C1620       C  0.55906848  0.03356718  0.53191406     0.35600
C1621       C  0.72232666  0.06181350  0.57620805     0.39100
C1622       C  0.54070380  0.03757862  0.63613339    -0.04500
C1623       C  0.51396616  0.03033914  0.66302099     0.02700
C1624       C  0.53888728  0.02143449  0.68233986    -0.04100
C1625       C  0.58716256  0.01866130  0.66467512    -0.00300
C1626       C  0.61346886  0.02580200  0.63690892    -0.02900
C1627       C  0.51623863  0.04722070  0.62065283     0.36400
C1628       C  0.60784857  0.00802264  0.66948402     0.40000
C1629       C  0.45974275  0.03159360  0.66694534     0.39100
C1630       C  0.66352996  0.02308848  0.62071304     0.36000
C1631       C  0.67317369  0.05002199  0.64524305     0.36700
C1632       C  0.60675284  0.04516144  0.46349363     0.40000
N1633       N  0.41647298  0.03257415  0.66972859    -0.38100
N1634       N  0.49681220  0.05491790  0.60832592    -0.39700
N1635       N  0.62569377  0.99962289  0.67240324    -0.37400
N1636       N  0.70348027  0.02096551  0.60787578    -0.39800
N1637       N  0.52652943  0.02772183  0.52313970    -0.39600
N1638       N  0.59203921  0.04385937  0.42726746    -0.37200
N1639       N  0.75495952  0.06761907  0.58518318    -0.38300
N1640       N  0.68657493  0.05090348  0.68209696    -0.39900
loop_ 
_geom_bond_atom_site_label_1 
_geom_bond_atom_site_label_2 
_geom_bond_distance 
_geom_bond_site_symmetry_2 
_ccdc_geom_bond_type 
O1            C4   1.274       .  A
O1           Cd6   2.487       .  S
C2           O11   1.267       .  A
C2            O7   1.272       .  A
C2         C1533   1.499       .  S
O3            C9   1.273       .  A
O3           Cd6   2.493       .  S
C4           O12   1.265       .  A
C4         C1596   1.496       .  S
C5           O10   1.273       .  A
C5            O8   1.265       .  A
C5         C1561   1.486       .  S
Cd6          O13   2.420       .  S
Cd6          O12   2.377       .  S
Cd6          O11   2.428       .  S
Cd6           O7   2.479       .  S
Cd6          O10   2.489       .  S
Cd6           O8   2.414       .  S
C9           O13   1.266       .  A
C9         C1617   1.491       .  S
O14          C17   1.272       .  A
O14         Cd19   2.498       .  S
C15          O24   1.268       .  A
C15          O20   1.270       .  A
C15        C1449   1.507       .  S
O16          C22   1.270       .  A
O16         Cd19   2.483       .  S
C17          O25   1.262       .  A
C17        C1484   1.492       .  S
C18          O23   1.271       .  A
C18          O21   1.266       .  A
C18        C1568   1.494       .  S
Cd19         O26   2.418       .  S
Cd19         O25   2.407       .  S
Cd19         O24   2.457       .  S
Cd19         O20   2.487       .  S
Cd19         O23   2.489       .  S
Cd19         O21   2.432       .  S
C22          O26   1.263       .  A
C22        C1505   1.480   1_554  S
C27          C28   1.541       .  S
C27          C33   1.536       .  S
C27          C31   1.547       .  S
C27        C1624   1.555       .  S
C28          H35   1.083       .  S
C28          C29   1.361       .  D
C29          C30   1.546       .  S
C29        C1421   1.491   1_545  S
C30          C34   1.536       .  S
C30          C32   1.541       .  S
C30          H36   1.104       .  S
C31          H37   1.085       .  S
C31          C32   1.382       .  D
C32        C1393   1.523   1_545  S
C33          H38   1.085       .  S
C33          C34   1.356       .  D
C34        C1512   1.488       .  S
O39          C42   1.272       .  A
O39         Cd44   2.495       .  S
C40          O49   1.264       .  A
C40          O45   1.274       .  A
C40        C1428   1.491       .  S
O41          C47   1.272   1_556  A
O41         Cd44   2.471       .  S
C42          O50   1.267       .  A
C42        C1309   1.496       .  S
C43          O48   1.272       .  A
C43          O46   1.266       .  A
C43        C1337   1.487       .  S
Cd44         O51   2.418       .  S
Cd44         O50   2.437       .  S
Cd44         O49   2.403       .  S
Cd44         O45   2.483       .  S
Cd44         O48   2.480       .  S
Cd44         O46   2.412       .  S
C47          O51   1.266   1_554  A
C47        C1372   1.486       .  S
O52          C55   1.272       .  A
O52         Cd57   2.492       .  S
C53          O62   1.263       .  A
C53          O58   1.274       .  A
C53        C1400   1.490       .  S
O54          C60   1.271       .  A
O54         Cd57   2.489       .  S
C55          O63   1.267       .  A
C55        C1253   1.501       .  S
C56          O61   1.272       .  A
C56          O59   1.266       .  A
C56        C1344   1.493       .  S
Cd57         O64   2.428       .  S
Cd57         O63   2.451       .  S
Cd57         O62   2.405       .  S
Cd57         O58   2.495       .  S
Cd57         O61   2.473       .  S
Cd57         O59   2.435       .  S
C60          O64   1.265       .  A
C60        C1288   1.484       .  S
C65          C66   1.561       .  S
C65          C71   1.518       .  S
C65          C69   1.544       .  S
C65        C1281   1.556       .  S
C66          H73   1.064       .  S
C66          C67   1.382       .  D
C67          C68   1.541       .  S
C67        C1589   1.520       .  S
C68          C72   1.550       .  S
C68          C70   1.534       .  S
C68          H74   1.103       .  S
C69          H75   1.084       .  S
C69          C70   1.366       .  D
C70        C1477   1.506       .  S
C71          H76   1.087       .  S
C71          C72   1.355       .  D
C72        C1365   1.488       .  S
C77          C78   1.524   1_554  S
C77          C83   1.546       .  S
C77          C81   1.551       .  S
C77        C1232   1.556   1_554  S
C78          H85   1.086       .  S
C78          C79   1.361       .  D
C79          C80   1.551   1_556  S
C79        C1176   1.488       .  S
C80          C84   1.534       .  S
C80          C82   1.541       .  S
C80          H86   1.093       .  S
C81          H87   1.073       .  S
C81          C82   1.377       .  D
C82        C1148   1.526       .  S
C83          H88   1.084       .  S
C83          C84   1.367       .  D
C84        C1204   1.509       .  S
C89          C90   1.555       .  S
C89          C95   1.530       .  S
C89          C93   1.544       .  S
C89        C1113   1.568       .  S
C90          H97   1.075       .  S
C90          C91   1.377       .  D
C91          C92   1.541       .  S
C91        C1085   1.516       .  S
C92          C96   1.547       .  S
C92          C94   1.538       .  S
C92          H98   1.102       .  S
C93          H99   1.084       .  S
C93          C94   1.375       .  D
C94        C1057   1.513       .  S
C95         H100   1.086       .  S
C95          C96   1.356       .  D
C96        C1197   1.482       .  S
C101        C102   1.536       .  S
C101        C107   1.529       .  S
C101        C105   1.555   1_655  S
C101       C1169   1.559   1_655  S
C102        H109   1.085       .  S
C102        C103   1.374       .  D
C103        C104   1.548       .  S
C103       C1092   1.521       .  S
C104        C108   1.551       .  S
C104        C106   1.534   1_655  S
C104        H110   1.102       .  S
C105        H111   1.083       .  S
C105        C106   1.376       .  D
C106       C1001   1.505       .  S
C107        H112   1.086       .  S
C107        C108   1.354       .  D
C108       C1036   1.486       .  S
C113        C114   1.538       .  S
C113        C119   1.546       .  S
C113        C117   1.546       .  S
C113       C1316   1.567       .  S
C114        H121   1.079       .  S
C114        C115   1.358       .  D
C115        C116   1.550       .  S
C115        C945   1.499       .  S
C116        C120   1.559       .  S
C116        C118   1.529       .  S
C116        H122   1.095       .  S
C117        H123   1.085       .  S
C117        C118   1.364       .  D
C118       C1029   1.497       .  S
C119        H124   1.081       .  S
C119        C120   1.385       .  D
C120        C973   1.540       .  S
C125        C126   1.541       .  S
C125        C131   1.538       .  S
C125        C129   1.547       .  S
C125       C1260   1.564       .  S
C126        H133   1.085       .  S
C126        C127   1.375       .  D
C127        C128   1.545       .  S
C127        C917   1.515       .  S
C128        C132   1.538       .  S
C128        C130   1.538       .  S
C128        H134   1.108       .  S
C129        H135   1.078       .  S
C129        C130   1.366       .  D
C130       C1008   1.490       .  S
C131        H136   1.086       .  S
C131        C132   1.363       .  D
C132        C980   1.494       .  S
C137        C138   1.535       .  S
C137        C143   1.544       .  S
C137        C141   1.541       .  S
C137        C924   1.562       .  S
C138        H145   1.084       .  S
C138        C139   1.373       .  D
C139        C140   1.549       .  S
C139        C952   1.515       .  S
C140        C144   1.536       .  S
C140        C142   1.542       .  S
C140        H146   1.107       .  S
C141        H147   1.084       .  S
C141        C142   1.366       .  D
C142       C1141   1.502       .  S
C143        H148   1.081       .  S
C143        C144   1.366       .  D
C144       C1064   1.492       .  S
C149        C150   1.547       .  S
C149        C155   1.539       .  S
C149        C153   1.536       .  S
C149        C889   1.559       .  S
C150        H157   1.081       .  S
C150        C151   1.365       .  D
C151        C152   1.538       .  S
C151        C812   1.488       .  S
C152        C156   1.552       .  S
C152        C154   1.544       .  S
C152        H158   1.105       .  S
C153        H159   1.085       .  S
C153        C154   1.364       .  D
C154        C833   1.509       .  S
C155        H160   1.086       .  S
C155        C156   1.371       .  D
C156        C861   1.517       .  S
C161        C162   1.551       .  S
C161        C167   1.521       .  S
C161        C165   1.547       .  S
C161        C777   1.557       .  S
C162        H169   1.074       .  S
C162        C163   1.380       .  D
C163        C164   1.550       .  S
C163        C721   1.530       .  S
C164        C168   1.552       .  S
C164        C166   1.534       .  S
C164        H170   1.101       .  S
C165        H171   1.085       .  S
C165        C166   1.366       .  D
C166        C756   1.498       .  S
C167        H172   1.087       .  S
C167        C168   1.354       .  D
C168        C868   1.490       .  S
C173        C174   1.529   1_655  S
C173        C179   1.547   1_655  S
C173        C177   1.544       .  S
C173        C840   1.557       .  S
C174        H181   1.087       .  S
C174        C175   1.359       .  D
C175        C176   1.537       .  S
C175        C700   1.494       .  S
C176        C180   1.552       .  S
C176        C178   1.540   1_455  S
C176        H182   1.106       .  S
C177        H183   1.083       .  S
C177        C178   1.366       .  D
C178        C672   1.496       .  S
C179        H184   1.085       .  S
C179        C180   1.378       .  D
C180        C749   1.520       .  S
C185        C186   1.545       .  S
C185        C191   1.542       .  S
C185        C189   1.529       .  S
C185       C1456   1.558       .  S
C186        H193   1.090       .  S
C186        C187   1.372       .  D
C187        C188   1.549       .  S
C187        C693   1.513       .  S
C188        C192   1.547       .  S
C188        C190   1.544       .  S
C188        H194   1.105       .  S
C189        H195   1.087   1_554  S
C189        C190   1.357       .  D
C190        C616   1.486   1_554  S
C191        H196   1.086       .  S
C191        C192   1.371       .  D
C192        C637   1.516       .  S
C197        C198   1.559       .  S
C197        C203   1.529       .  S
C197        C201   1.544       .  S
C197       C1540   1.567       .  S
C198        H205   1.073       .  S
C198        C199   1.376       .  D
C199        C200   1.537       .  S
C199        C665   1.513       .  S
C200        C204   1.548       .  S
C200        C202   1.541       .  S
C200        H206   1.101       .  S
C201        H207   1.085       .  S
C201        C202   1.372       .  D
C202        C581   1.515       .  S
C203        H208   1.087       .  S
C203        C204   1.353       .  D
C204        C644   1.486       .  S
C209        C210   1.542       .  S
C209        C215   1.535       .  S
C209        C213   1.541       .  S
C209        C609   1.558       .  S
C210        H217   1.081       .  S
C210        C211   1.359       .  D
C211        C212   1.539       .  S
C211        C805   1.490       .  S
C212        C216   1.548       .  S
C212        C214   1.547       .  S
C212        H218   1.109       .  S
C213        H219   1.086       .  S
C213        C214   1.370       .  D
C214        C728   1.500       .  S
C215        H220   1.086       .  S
C215        C216   1.370       .  D
C216        C588   1.510       .  S
O221        C224   1.270       .  A
O221       Cd226   2.470       .  S
C222        O231   1.264       .  A
C222        O227   1.271       .  A
C222        C525   1.476       .  S
O223        C229   1.272       .  A
O223       Cd226   2.479       .  S
C224        O232   1.267       .  A
C224        C896   1.493       .  S
C225        O230   1.272       .  A
C225        O228   1.264       .  A
C225        C553   1.491       .  S
Cd226       O233   2.431       .  S
Cd226       O232   2.433       .  S
Cd226       O231   2.397       .  S
Cd226       O227   2.470       .  S
Cd226       O230   2.493       .  S
Cd226       O228   2.404       .  S
C229        O233   1.267       .  A
C229        C504   1.491       .  S
O234        C237   1.268       .  A
O234       Cd239   2.468       .  S
C235        O244   1.264       .  A
C235        O240   1.269       .  A
C235        C441   1.480       .  S
O236        C242   1.271       .  A
O236       Cd239   2.506       .  S
C237        O245   1.267       .  A
C237        C784   1.492       .  S
C238        O243   1.271       .  A
C238        O241   1.264       .  A
C238        C469   1.506       .  S
Cd239       O246   2.438       .  S
Cd239       O245   2.446       .  S
Cd239       O244   2.404       .  S
Cd239       O240   2.478       .  S
Cd239       O243   2.516       .  S
Cd239       O241   2.453       .  S
C242        O246   1.265       .  A
C242        C497   1.497       .  S
C247        C248   1.540       .  S
C247        C253   1.539       .  S
C247        C251   1.552       .  S
C247        C476   1.562       .  S
C248        H255   1.085       .  S
C248        C249   1.375       .  D
C249        C250   1.543       .  S
C249        C392   1.515       .  S
C250        C254   1.538       .  S
C250        C252   1.536       .  S
C250        H256   1.105   1_455  S
C251        H257   1.079       .  S
C251        C252   1.365       .  D
C252        C420   1.491   1_455  S
C253        H258   1.085       .  S
C253        C254   1.363       .  D
C254        C560   1.494   1_455  S
O259        C262   1.270       .  A
O259       Cd264   2.483       .  S
C260        O269   1.266       .  A
C260        O265   1.272       .  A
C260        C413   1.482       .  S
O261        C267   1.273       .  A
O261       Cd264   2.491       .  S
C262        O270   1.266       .  A
C262       C1120   1.491       .  S
C263        O268   1.273       .  A
C263        O266   1.264       .  A
C263        C329   1.493       .  S
Cd264       O271   2.388       .  S
Cd264       O270   2.448       .  S
Cd264       O269   2.417       .  S
Cd264       O265   2.471       .  S
Cd264       O268   2.497       .  S
Cd264       O266   2.388       .  S
C267        O271   1.265       .  A
C267        C357   1.490       .  S
O272        C275   1.270       .  A
O272       Cd277   2.476       .  S
C273        O282   1.264       .  A
C273        O278   1.270       .  A
C273        C385   1.480       .  S
O274        C280   1.272       .  A
O274       Cd277   2.500   1_556  S
C275        O283   1.267       .  A
C275       C1225   1.495       .  S
C276        O281   1.271       .  A
C276        O279   1.266       .  A
C276        C336   1.482       .  S
Cd277       O284   2.379   1_554  S
Cd277       O283   2.446       .  S
Cd277       O282   2.430       .  S
Cd277       O278   2.472       .  S
Cd277       O281   2.468       .  S
Cd277       O279   2.410       .  S
C280        O284   1.263       .  A
C280        C301   1.489       .  S
C285        C286   1.542       .  S
C285        C291   1.526       .  S
C285        C289   1.552   1_455  S
C285        C364   1.551   1_455  S
C286        H293   1.084       .  S
C286        C287   1.361       .  D
C287        C288   1.534       .  S
C287        C448   1.486       .  S
C288        C292   1.533       .  S
C288        C290   1.543       .  S
C288        H294   1.104       .  S
C289        H295   1.084       .  S
C289        C290   1.381   1_655  D
C290        C532   1.513       .  S
C291        H296   1.086       .  S
C291        C292   1.359       .  D
C292        C308   1.487       .  S
C297        C298   1.408       .  A
C297        C302   1.406       .  A
C297        C315   1.452       .  S
C298        C303   1.492       .  S
C298        C299   1.409       .  A
C299        C300   1.413       .  A
C299        C304   1.450       .  S
C300        C301   1.418       .  A
C300        C316   1.450       .  S
C301        C302   1.417       .  A
C302        C305   1.452       .  S
C303        C306   1.408       .  A
C303        C310   1.411       .  A
C304        N321   1.157       .  T
C305        N323   1.157       .  T
C306        C307   1.408       .  A
C306        C311   1.450       .  S
C307        C308   1.415       .  A
C307        C313   1.451       .  S
C308        C309   1.413       .  A
C309        C310   1.410       .  A
C309        C312   1.451       .  S
C310        C314   1.451       .  S
C311        N318   1.157       .  T
C312        N319   1.157       .  T
C313        N317   1.157       .  T
C314        N320   1.157       .  T
C315        N324   1.157       .  T
C316        N322   1.157       .  T
C325        C326   1.406       .  A
C325        C330   1.406       .  A
C325        C343   1.452       .  S
C326        C331   1.492       .  S
C326        C327   1.410       .  A
C327        C328   1.413       .  A
C327        C332   1.451       .  S
C328        C329   1.418       .  A
C328        C344   1.450       .  S
C329        C330   1.422       .  A
C330        C333   1.453       .  S
C331        C334   1.410       .  A
C331        C338   1.410       .  A
C332        N349   1.157       .  T
C333        N351   1.157       .  T
C334        C335   1.410       .  A
C334        C339   1.451       .  S
C335        C336   1.414       .  A
C335        C341   1.450       .  S
C336        C337   1.415       .  A
C337        C338   1.408       .  A
C337        C340   1.452       .  S
C338        C342   1.451       .  S
C339        N346   1.157       .  T
C340        N347   1.157       .  T
C341        N345   1.157       .  T
C342        N348   1.157       .  T
C343        N352   1.157       .  T
C344        N350   1.157       .  T
C353        C354   1.409       .  A
C353        C358   1.408       .  A
C353        C371   1.452       .  S
C354        C359   1.495       .  S
C354        C355   1.409       .  A
C355        C356   1.413       .  A
C355        C360   1.451       .  S
C356        C357   1.418       .  A
C356        C372   1.450       .  S
C357        C358   1.417       .  A
C358        C361   1.452       .  S
C359        C362   1.405       .  A
C359        C366   1.406       .  A
C360        N377   1.157       .  T
C361        N379   1.157       .  T
C362        C363   1.413       .  A
C362        C367   1.451       .  S
C363        C364   1.425       .  A
C363        C369   1.448       .  S
C364        C365   1.429       .  A
C365        C366   1.409       .  A
C365        C368   1.451   1_655  S
C366        C370   1.454       .  S
C367        N374   1.157       .  T
C368        N375   1.158       .  T
C369        N373   1.156       .  T
C370        N376   1.157       .  T
C371        N380   1.157       .  T
C372        N378   1.157       .  T
C381        C382   1.412       .  A
C381        C386   1.410       .  A
C381        C399   1.451       .  S
C382        C387   1.498       .  S
C382        C383   1.413       .  A
C383        C384   1.411       .  A
C383        C388   1.450       .  S
C384        C385   1.412       .  A
C384        C400   1.451       .  S
C385        C386   1.413       .  A
C386        C389   1.452       .  S
C387        C390   1.409       .  A
C387        C394   1.407       .  A
C388        N405   1.157       .  T
C389        N407   1.157   1_554  T
C390        C391   1.413       .  A
C390        C395   1.451       .  S
C391        C392   1.420       .  A
C391        C397   1.450       .  S
C392        C393   1.425       .  A
C393        C394   1.411       .  A
C393        C396   1.446       .  S
C394        C398   1.453       .  S
C395        N402   1.157       .  T
C396        N403   1.157   1_455  T
C397        N401   1.157       .  T
C398        N404   1.157       .  T
C399        N408   1.157       .  T
C400        N406   1.157       .  T
C409        C410   1.409       .  A
C409        C414   1.408       .  A
C409        C427   1.451       .  S
C410        C415   1.495       .  S
C410        C411   1.413       .  A
C411        C412   1.413       .  A
C411        C416   1.450       .  S
C412        C413   1.412       .  A
C412        C428   1.451       .  S
C413        C414   1.414       .  A
C414        C417   1.451       .  S
C415        C418   1.411       .  A
C415        C422   1.409       .  A
C416        N433   1.157       .  T
C417        N435   1.157       .  T
C418        C419   1.412       .  A
C418        C423   1.450       .  S
C419        C420   1.411       .  A
C419        C425   1.448       .  S
C420        C421   1.418   1_655  A
C421        C422   1.410   1_455  A
C421        C424   1.451       .  S
C422        C426   1.451   1_655  S
C423        N430   1.157       .  T
C424        N431   1.157       .  T
C425        N429   1.157       .  T
C426        N432   1.157       .  T
C427        N436   1.157       .  T
C428        N434   1.157       .  T
C437        C438   1.412       .  A
C437        C442   1.410       .  A
C437        C455   1.450       .  S
C438        C443   1.489       .  S
C438        C439   1.408       .  A
C439        C440   1.406       .  A
C439        C444   1.451       .  S
C440        C441   1.415       .  A
C440        C456   1.451       .  S
C441        C442   1.411       .  A
C442        C445   1.450       .  S
C443        C446   1.410       .  A
C443        C450   1.408       .  A
C444        N461   1.157       .  T
C445        N463   1.157       .  T
C446        C447   1.409       .  A
C446        C451   1.450       .  S
C447        C448   1.412       .  A
C447        C453   1.450       .  S
C448        C449   1.418       .  A
C449        C450   1.406       .  A
C449        C452   1.452       .  S
C450        C454   1.451       .  S
C451        N458   1.157       .  T
C452        N459   1.157   1_455  T
C453        N457   1.157       .  T
C454        N460   1.157       .  T
C455        N464   1.157       .  T
C456        N462   1.157       .  T
C465        C466   1.410       .  A
C465        C470   1.415       .  A
C465        C483   1.450       .  S
C466        C471   1.508       .  S
C466        C467   1.412       .  A
C467        C468   1.416       .  A
C467        C472   1.450       .  S
C468        C469   1.420       .  A
C468        C484   1.450       .  S
C469        C470   1.421       .  A
C470        C473   1.451       .  S
C471        C474   1.408       .  A
C471        C478   1.408       .  A
C472        N489   1.157       .  T
C473        N491   1.157       .  T
C474        C475   1.412       .  A
C474        C479   1.450       .  S
C475        C476   1.425       .  A
C475        C481   1.448       .  S
C476        C477   1.430       .  A
C477        C478   1.419       .  A
C477        C480   1.451       .  S
C478        C482   1.451       .  S
C479        N486   1.156       .  T
C480        N487   1.157       .  T
C481        N485   1.158       .  T
C482        N488   1.157       .  T
C483        N492   1.157       .  T
C484        N490   1.157       .  T
C493        C494   1.410       .  A
C493        C498   1.411       .  A
C493        C511   1.452       .  S
C494        C499   1.501       .  S
C494        C495   1.411       .  A
C495        C496   1.416       .  A
C495        C500   1.450       .  S
C496        C497   1.418       .  A
C496        C512   1.450       .  S
C497        C498   1.419       .  A
C498        C501   1.452       .  S
C499        C502   1.411       .  A
C499        C506   1.412       .  A
C500        N517   1.157       .  T
C501        N519   1.157       .  T
C502        C503   1.411       .  A
C502        C507   1.451       .  S
C503        C504   1.417       .  A
C503        C509   1.452       .  S
C504        C505   1.415       .  A
C505        C506   1.414       .  A
C505        C508   1.451       .  S
C506        C510   1.450       .  S
C507        N514   1.157       .  T
C508        N515   1.157       .  T
C509        N513   1.157       .  T
C510        N516   1.157       .  T
C511        N520   1.157       .  T
C512        N518   1.157       .  T
C521        C522   1.412       .  A
C521        C526   1.409       .  A
C521        C539   1.452       .  S
C522        C527   1.493       .  S
C522        C523   1.411       .  A
C523        C524   1.408       .  A
C523        C528   1.451       .  S
C524        C525   1.412       .  A
C524        C540   1.451       .  S
C525        C526   1.413       .  A
C526        C529   1.452       .  S
C527        C530   1.405       .  A
C527        C534   1.409       .  A
C528        N545   1.157       .  T
C529        N547   1.157       .  T
C530        C531   1.406   1_655  A
C530        C535   1.454   1_655  S
C531        C532   1.423       .  A
C531        C537   1.444       .  S
C532        C533   1.418   1_455  A
C533        C534   1.412       .  A
C533        C536   1.447       .  S
C534        C538   1.451       .  S
C535        N542   1.157       .  T
C536        N543   1.156       .  T
C537        N541   1.157       .  T
C538        N544   1.157       .  T
C539        N548   1.157   1_655  T
C540        N546   1.157       .  T
C549        C550   1.412       .  A
C549        C554   1.414   1_554  A
C549        C567   1.450       .  S
C550        C555   1.501       .  S
C550        C551   1.411       .  A
C551        C552   1.409       .  A
C551        C556   1.452       .  S
C552        C553   1.416   1_554  A
C552        C568   1.452       .  S
C553        C554   1.417       .  A
C554        C557   1.451       .  S
C555        C558   1.411       .  A
C555        C562   1.413       .  A
C556        N573   1.157       .  T
C557        N575   1.157       .  T
C558        C559   1.412       .  A
C558        C563   1.451       .  S
C559        C560   1.416       .  A
C559        C565   1.451       .  S
C560        C561   1.412       .  A
C561        C562   1.412       .  A
C561        C564   1.450   1_655  S
C562        C566   1.451       .  S
C563        N570   1.157       .  T
C564        N571   1.157       .  T
C565        N569   1.157       .  T
C566        N572   1.157   1_554  T
C567        N576   1.157       .  T
C568        N574   1.157       .  T
C577        C578   1.407       .  A
C577        C582   1.413       .  A
C577        C595   1.453       .  S
C578        C583   1.500       .  S
C578        C579   1.407       .  A
C579        C580   1.413       .  A
C579        C584   1.451       .  S
C580        C581   1.424       .  A
C580        C596   1.451       .  S
C581        C582   1.425       .  A
C582        C585   1.447       .  S
C583        C586   1.407       .  A
C583        C590   1.409       .  A
C584        N601   1.157       .  T
C585        N603   1.158       .  T
C586        C587   1.409       .  A
C586        C591   1.453       .  S
C587        C588   1.421       .  A
C587        C593   1.448       .  S
C588        C589   1.421       .  A
C589        C590   1.416       .  A
C589        C592   1.447       .  S
C590        C594   1.451       .  S
C591        N598   1.157       .  T
C592        N599   1.157       .  T
C593        N597   1.156       .  T
C594        N600   1.157       .  T
C595        N604   1.157       .  T
C596        N602   1.157       .  T
C605        C606   1.410       .  A
C605        C610   1.415       .  A
C605        C623   1.452       .  S
C606        C611   1.505       .  S
C606        C607   1.408       .  A
C607        C608   1.408       .  A
C607        C612   1.452       .  S
C608        C609   1.427       .  A
C608        C624   1.449       .  S
C609        C610   1.428       .  A
C610        C613   1.449       .  S
C611        C614   1.416       .  A
C611        C618   1.415       .  A
C612        N629   1.157       .  T
C613        N631   1.157       .  T
C614        C615   1.412       .  A
C614        C619   1.451       .  S
C615        C616   1.409       .  A
C615        C621   1.449       .  S
C616        C617   1.411       .  A
C617        C618   1.410       .  A
C617        C620   1.452       .  S
C618        C622   1.451       .  S
C619        N626   1.157       .  T
C620        N627   1.157       .  T
C621        N625   1.157       .  T
C622        N628   1.157       .  T
C623        N632   1.157       .  T
C624        N630   1.158       .  T
C633        C634   1.408       .  A
C633        C638   1.410       .  A
C633        C651   1.454       .  S
C634        C639   1.503       .  S
C634        C635   1.409       .  A
C635        C636   1.416       .  A
C635        C640   1.453       .  S
C636        C637   1.425       .  A
C636        C652   1.447       .  S
C637        C638   1.423       .  A
C638        C641   1.448       .  S
C639        C642   1.414       .  A
C639        C646   1.414       .  A
C640        N657   1.157       .  T
C641        N659   1.156       .  T
C642        C643   1.409       .  A
C642        C647   1.451       .  S
C643        C644   1.412       .  A
C643        C649   1.452       .  S
C644        C645   1.412       .  A
C645        C646   1.411       .  A
C645        C648   1.450       .  S
C646        C650   1.451       .  S
C647        N654   1.157       .  T
C648        N655   1.157       .  T
C649        N653   1.157       .  T
C650        N656   1.157       .  T
C651        N660   1.157       .  T
C652        N658   1.157       .  T
C661        C662   1.408       .  A
C661        C666   1.410       .  A
C661        C679   1.454       .  S
C662        C667   1.501       .  S
C662        C663   1.408       .  A
C663        C664   1.415       .  A
C663        C668   1.451       .  S
C664        C665   1.424       .  A
C664        C680   1.450       .  S
C665        C666   1.424       .  A
C666        C669   1.447       .  S
C667        C670   1.412       .  A
C667        C674   1.410       .  A
C668        N685   1.157       .  T
C669        N687   1.157       .  T
C670        C671   1.411       .  A
C670        C675   1.451       .  S
C671        C672   1.416       .  A
C671        C677   1.451       .  S
C672        C673   1.414       .  A
C673        C674   1.412       .  A
C673        C676   1.447   1_655  S
C674        C678   1.451       .  S
C675        N682   1.157       .  T
C676        N683   1.156       .  T
C677        N681   1.157       .  T
C678        N684   1.157       .  T
C679        N688   1.157       .  T
C680        N686   1.157       .  T
C689        C690   1.407       .  A
C689        C694   1.414       .  A
C689        C707   1.452       .  S
C690        C695   1.497       .  S
C690        C691   1.407       .  A
C691        C692   1.411       .  A
C691        C696   1.451       .  S
C692        C693   1.424       .  A
C692        C708   1.452       .  S
C693        C694   1.422       .  A
C694        C697   1.447       .  S
C695        C698   1.409       .  A
C695        C702   1.411       .  A
C696        N713   1.157       .  T
C697        N715   1.157       .  T
C698        C699   1.409       .  A
C698        C703   1.451       .  S
C699        C700   1.418       .  A
C699        C705   1.452       .  S
C700        C701   1.414       .  A
C701        C702   1.413       .  A
C701        C704   1.450       .  S
C702        C706   1.450       .  S
C703        N710   1.157       .  T
C704        N711   1.157       .  T
C705        N709   1.157       .  T
C706        N712   1.157       .  T
C707        N716   1.157       .  T
C708        N714   1.157       .  T
C717        C718   1.405       .  A
C717        C722   1.412       .  A
C717        C735   1.453       .  S
C718        C723   1.504       .  S
C718        C719   1.407       .  A
C719        C720   1.417       .  A
C719        C724   1.453       .  S
C720        C721   1.431       .  A
C720        C736   1.448       .  S
C721        C722   1.432       .  A
C722        C725   1.451       .  S
C723        C726   1.411       .  A
C723        C730   1.412       .  A
C724        N741   1.157       .  T
C725        N743   1.158       .  T
C726        C727   1.412       .  A
C726        C731   1.452       .  S
C727        C728   1.419       .  A
C727        C733   1.452       .  S
C728        C729   1.415       .  A
C729        C730   1.414       .  A
C729        C732   1.450       .  S
C730        C734   1.451       .  S
C731        N738   1.157       .  T
C732        N739   1.157       .  T
C733        N737   1.157       .  T
C734        N740   1.157       .  T
C735        N744   1.157       .  T
C736        N742   1.158       .  T
C745        C746   1.406       .  A
C745        C750   1.413       .  A
C745        C763   1.454       .  S
C746        C751   1.501       .  S
C746        C747   1.405       .  A
C747        C748   1.411       .  A
C747        C752   1.454       .  S
C748        C749   1.426       .  A
C748        C764   1.446       .  S
C749        C750   1.428       .  A
C750        C753   1.447       .  S
C751        C754   1.410       .  A
C751        C758   1.411       .  A
C752        N769   1.157       .  T
C753        N771   1.157       .  T
C754        C755   1.411       .  A
C754        C759   1.452       .  S
C755        C756   1.417       .  A
C755        C761   1.447       .  S
C756        C757   1.415       .  A
C757        C758   1.410       .  A
C757        C760   1.447       .  S
C758        C762   1.453       .  S
C759        N766   1.157       .  T
C760        N767   1.156       .  T
C761        N765   1.156       .  T
C762        N768   1.157   1_455  T
C763        N772   1.157       .  T
C764        N770   1.156       .  T
C773        C774   1.407       .  A
C773        C778   1.413       .  A
C773        C791   1.453       .  S
C774        C779   1.501       .  S
C774        C775   1.406       .  A
C775        C776   1.412       .  A
C775        C780   1.452       .  S
C776        C777   1.429       .  A
C776        C792   1.449       .  S
C777        C778   1.431       .  A
C778        C781   1.452       .  S
C779        C782   1.413       .  A
C779        C786   1.410       .  A
C780        N797   1.157       .  T
C781        N799   1.157       .  T
C782        C783   1.412       .  A
C782        C787   1.452       .  S
C783        C784   1.417       .  A
C783        C789   1.452       .  S
C784        C785   1.417       .  A
C785        C786   1.411       .  A
C785        C788   1.451       .  S
C786        C790   1.451       .  S
C787        N794   1.157       .  T
C788        N795   1.157       .  T
C789        N793   1.158       .  T
C790        N796   1.157       .  T
C791        N800   1.157       .  T
C792        N798   1.158       .  T
C801        C802   1.413       .  A
C801        C806   1.413       .  A
C801        C819   1.451       .  S
C802        C807   1.500       .  S
C802        C803   1.411       .  A
C803        C804   1.409       .  A
C803        C808   1.451       .  S
C804        C805   1.416       .  A
C804        C820   1.452       .  S
C805        C806   1.410       .  A
C806        C809   1.447       .  S
C807        C810   1.413       .  A
C807        C814   1.412       .  A
C808        N825   1.157       .  T
C809        N827   1.157       .  T
C810        C811   1.410       .  A
C810        C815   1.452       .  S
C811        C812   1.410       .  A
C811        C817   1.449       .  S
C812        C813   1.414       .  A
C813        C814   1.412       .  A
C813        C816   1.451       .  S
C814        C818   1.450       .  S
C815        N822   1.157       .  T
C816        N823   1.157       .  T
C817        N821   1.157       .  T
C818        N824   1.157       .  T
C819        N828   1.157       .  T
C820        N826   1.157       .  T
C829        C830   1.410   1_556  A
C829        C834   1.412       .  A
C829        C847   1.452       .  S
C830        C835   1.503       .  S
C830        C831   1.408       .  A
C831        C832   1.413   1_554  A
C831        C836   1.451       .  S
C832        C833   1.424       .  A
C832        C848   1.452       .  S
C833        C834   1.420       .  A
C834        C837   1.449       .  S
C835        C838   1.407       .  A
C835        C842   1.409       .  A
C836        N853   1.157       .  T
C837        N855   1.157       .  T
C838        C839   1.410       .  A
C838        C843   1.452       .  S
C839        C840   1.424       .  A
C839        C845   1.448   1_655  S
C840        C841   1.429       .  A
C841        C842   1.417       .  A
C841        C844   1.449       .  S
C842        C846   1.453       .  S
C843        N850   1.157   1_655  T
C844        N851   1.158       .  T
C845        N849   1.157       .  T
C846        N852   1.157       .  T
C847        N856   1.157   1_655  T
C848        N854   1.158       .  T
C857        C858   1.405       .  A
C857        C862   1.408       .  A
C857        C875   1.454   1_655  S
C858        C863   1.497   1_655  S
C858        C859   1.405       .  A
C859        C860   1.417       .  A
C859        C864   1.451       .  S
C860        C861   1.427       .  A
C860        C876   1.447       .  S
C861        C862   1.425       .  A
C862        C865   1.449       .  S
C863        C866   1.410       .  A
C863        C870   1.411   1_455  A
C864        N881   1.157       .  T
C865        N883   1.156       .  T
C866        C867   1.408       .  A
C866        C871   1.451       .  S
C867        C868   1.413       .  A
C867        C873   1.450       .  S
C868        C869   1.416       .  A
C869        C870   1.412   1_455  A
C869        C872   1.451       .  S
C870        C874   1.451       .  S
C871        N878   1.157       .  T
C872        N879   1.157       .  T
C873        N877   1.157       .  T
C874        N880   1.157       .  T
C875        N884   1.157       .  T
C876        N882   1.157       .  T
C885        C886   1.402       .  A
C885        C890   1.408       .  A
C885        C903   1.452       .  S
C886        C891   1.496       .  S
C886        C887   1.408       .  A
C887        C888   1.417       .  A
C887        C892   1.452       .  S
C888        C889   1.427       .  A
C888        C904   1.447       .  S
C889        C890   1.430       .  A
C890        C893   1.451       .  S
C891        C894   1.410       .  A
C891        C898   1.409       .  A
C892        N909   1.157       .  T
C893        N911   1.157       .  T
C894        C895   1.412       .  A
C894        C899   1.451       .  S
C895        C896   1.418       .  A
C895        C901   1.451       .  S
C896        C897   1.419       .  A
C897        C898   1.411       .  A
C897        C900   1.452       .  S
C898        C902   1.451       .  S
C899        N906   1.157       .  T
C900        N907   1.157       .  T
C901        N905   1.157       .  T
C902        N908   1.157       .  T
C903        N912   1.157       .  T
C904        N910   1.158       .  T
C913        C914   1.406       .  A
C913        C918   1.412       .  A
C913        C931   1.452       .  S
C914        C919   1.499       .  S
C914        C915   1.405       .  A
C915        C916   1.415       .  A
C915        C920   1.453       .  S
C916        C917   1.426       .  A
C916        C932   1.447       .  S
C917        C918   1.424       .  A
C918        C921   1.448       .  S
C919        C922   1.405       .  A
C919        C926   1.404       .  A
C920        N937   1.157       .  T
C921        N939   1.156       .  T
C922        C923   1.414       .  A
C922        C927   1.454       .  S
C923        C924   1.431       .  A
C923        C929   1.447       .  S
C924        C925   1.432       .  A
C925        C926   1.412       .  A
C925        C928   1.451       .  S
C926        C930   1.452       .  S
C927        N934   1.157       .  T
C928        N935   1.157       .  T
C929        N933   1.157       .  T
C930        N936   1.157       .  T
C931        N940   1.157       .  T
C932        N938   1.157       .  T
C941        C942   1.412       .  A
C941        C946   1.412   1_554  A
C941        C959   1.452       .  S
C942        C947   1.505       .  S
C942        C943   1.413   1_554  A
C943        C944   1.413       .  A
C943        C948   1.450       .  S
C944        C945   1.413       .  A
C944        C960   1.448       .  S
C945        C946   1.418       .  A
C946        C949   1.451       .  S
C947        C950   1.409       .  A
C947        C954   1.409       .  A
C948        N965   1.157       .  T
C949        N967   1.157   1_556  T
C950        C951   1.412       .  A
C950        C955   1.453       .  S
C951        C952   1.424       .  A
C951        C957   1.449       .  S
C952        C953   1.424       .  A
C953        C954   1.416       .  A
C953        C956   1.448       .  S
C954        C958   1.452       .  S
C955        N962   1.157       .  T
C956        N963   1.157       .  T
C957        N961   1.157       .  T
C958        N964   1.157       .  T
C959        N968   1.157       .  T
C960        N966   1.157       .  T
C969        C970   1.401       .  A
C969        C974   1.418       .  A
C969        C987   1.453       .  S
C970        C975   1.496       .  S
C970        C971   1.400       .  A
C971        C972   1.411       .  A
C971        C976   1.455       .  S
C972        C973   1.436       .  A
C972        C988   1.448       .  S
C973        C974   1.438       .  A
C974        C977   1.447       .  S
C975        C978   1.409       .  A
C975        C982   1.411       .  A
C976        N993   1.157       .  T
C977        N995   1.158       .  T
C978        C979   1.407       .  A
C978        C983   1.452       .  S
C979        C980   1.417       .  A
C979        C985   1.452       .  S
C980        C981   1.414       .  A
C981        C982   1.413       .  A
C981        C984   1.449       .  S
C982        C986   1.450       .  S
C983        N990   1.157       .  T
C984        N991   1.157       .  T
C985        N989   1.157       .  T
C986        N992   1.157       .  T
C987        N996   1.157       .  T
C988        N994   1.157       .  T
C997        C998   1.408       .  A
C997       C1002   1.411       .  A
C997       C1015   1.451       .  S
C998       C1003   1.497       .  S
C998        C999   1.409       .  A
C999       C1000   1.410       .  A
C999       C1004   1.453       .  S
C1000      C1001   1.421       .  A
C1000      C1016   1.447   1_455  S
C1001      C1002   1.416       .  A
C1002      C1005   1.447       .  S
C1003      C1006   1.410       .  A
C1003      C1010   1.412       .  A
C1004      N1021   1.157       .  T
C1005      N1023   1.156       .  T
C1006      C1007   1.408       .  A
C1006      C1011   1.451       .  S
C1007      C1008   1.416       .  A
C1007      C1013   1.452       .  S
C1008      C1009   1.412       .  A
C1009      C1010   1.412       .  A
C1009      C1012   1.448       .  S
C1010      C1014   1.451       .  S
C1011      N1018   1.157       .  T
C1012      N1019   1.157       .  T
C1013      N1017   1.157       .  T
C1014      N1020   1.157       .  T
C1015      N1024   1.157       .  T
C1016      N1022   1.158       .  T
C1025      C1026   1.408       .  A
C1025      C1030   1.412       .  A
C1025      C1043   1.452       .  S
C1026      C1031   1.494       .  S
C1026      C1027   1.405       .  A
C1027      C1028   1.410       .  A
C1027      C1032   1.452       .  S
C1028      C1029   1.417       .  A
C1028      C1044   1.444       .  S
C1029      C1030   1.415       .  A
C1030      C1033   1.446       .  S
C1031      C1034   1.411       .  A
C1031      C1038   1.408       .  A
C1032      N1049   1.157       .  T
C1033      N1051   1.156       .  T
C1034      C1035   1.410       .  A
C1034      C1039   1.450       .  S
C1035      C1036   1.410       .  A
C1035      C1041   1.450       .  S
C1036      C1037   1.416       .  A
C1037      C1038   1.409       .  A
C1037      C1040   1.452       .  S
C1038      C1042   1.451       .  S
C1039      N1046   1.157       .  T
C1040      N1047   1.157   1_655  T
C1041      N1045   1.157       .  T
C1042      N1048   1.157       .  T
C1043      N1052   1.157       .  T
C1044      N1050   1.155       .  T
C1053      C1054   1.405       .  A
C1053      C1058   1.412       .  A
C1053      C1071   1.453       .  S
C1054      C1059   1.496       .  S
C1054      C1055   1.407       .  A
C1055      C1056   1.411       .  A
C1055      C1060   1.453       .  S
C1056      C1057   1.424       .  A
C1056      C1072   1.450       .  S
C1057      C1058   1.428       .  A
C1058      C1061   1.448       .  S
C1059      C1062   1.411       .  A
C1059      C1066   1.410       .  A
C1060      N1077   1.157       .  T
C1061      N1079   1.158       .  T
C1062      C1063   1.412       .  A
C1062      C1067   1.451       .  S
C1063      C1064   1.414       .  A
C1063      C1069   1.447       .  S
C1064      C1065   1.415       .  A
C1065      C1066   1.406       .  A
C1065      C1068   1.451       .  S
C1066      C1070   1.451       .  S
C1067      N1074   1.157       .  T
C1068      N1075   1.157       .  T
C1069      N1073   1.157       .  T
C1070      N1076   1.157       .  T
C1071      N1080   1.157       .  T
C1072      N1078   1.157       .  T
C1081      C1082   1.407       .  A
C1081      C1086   1.410       .  A
C1081      C1099   1.451       .  S
C1082      C1087   1.504       .  S
C1082      C1083   1.410       .  A
C1083      C1084   1.418       .  A
C1083      C1088   1.451       .  S
C1084      C1085   1.424       .  A
C1084      C1100   1.447       .  S
C1085      C1086   1.419       .  A
C1086      C1089   1.448       .  S
C1087      C1090   1.405       .  A
C1087      C1094   1.408       .  A
C1088      N1105   1.157       .  T
C1089      N1107   1.156       .  T
C1090      C1091   1.412       .  A
C1090      C1095   1.453       .  S
C1091      C1092   1.429       .  A
C1091      C1097   1.450   1_655  S
C1092      C1093   1.426       .  A
C1093      C1094   1.418       .  A
C1093      C1096   1.448       .  S
C1094      C1098   1.451       .  S
C1095      N1102   1.157       .  T
C1096      N1103   1.157       .  T
C1097      N1101   1.157       .  T
C1098      N1104   1.157       .  T
C1099      N1108   1.157       .  T
C1100      N1106   1.158       .  T
C1109      C1110   1.406       .  A
C1109      C1114   1.420       .  A
C1109      C1127   1.452       .  S
C1110      C1115   1.502       .  S
C1110      C1111   1.402       .  A
C1111      C1112   1.411       .  A
C1111      C1116   1.454       .  S
C1112      C1113   1.433       .  A
C1112      C1128   1.448       .  S
C1113      C1114   1.431       .  A
C1114      C1117   1.445       .  S
C1115      C1118   1.411       .  A
C1115      C1122   1.411       .  A
C1116      N1133   1.157       .  T
C1117      N1135   1.157       .  T
C1118      C1119   1.412       .  A
C1118      C1123   1.451       .  S
C1119      C1120   1.417       .  A
C1119      C1125   1.452       .  S
C1120      C1121   1.415       .  A
C1121      C1122   1.414       .  A
C1121      C1124   1.450       .  S
C1122      C1126   1.450       .  S
C1123      N1130   1.157       .  T
C1124      N1131   1.157       .  T
C1125      N1129   1.158       .  T
C1126      N1132   1.157       .  T
C1127      N1136   1.157       .  T
C1128      N1134   1.156       .  T
C1137      C1138   1.411       .  A
C1137      C1142   1.410       .  A
C1137      C1155   1.452       .  S
C1138      C1143   1.503       .  S
C1138      C1139   1.413       .  A
C1139      C1140   1.412       .  A
C1139      C1144   1.451       .  S
C1140      C1141   1.416       .  A
C1140      C1156   1.450       .  S
C1141      C1142   1.422       .  A
C1142      C1145   1.452       .  S
C1143      C1146   1.407       .  A
C1143      C1150   1.407       .  A
C1144      N1161   1.157       .  T
C1145      N1163   1.157       .  T
C1146      C1147   1.415       .  A
C1146      C1151   1.454       .  S
C1147      C1148   1.431       .  A
C1147      C1153   1.447       .  S
C1148      C1149   1.428       .  A
C1149      C1150   1.411       .  A
C1149      C1152   1.452       .  S
C1150      C1154   1.453       .  S
C1151      N1158   1.157       .  T
C1152      N1159   1.158       .  T
C1153      N1157   1.158       .  T
C1154      N1160   1.157       .  T
C1155      N1164   1.157       .  T
C1156      N1162   1.157       .  T
C1165      C1166   1.410       .  A
C1165      C1170   1.413   1_455  A
C1165      C1183   1.452   1_455  S
C1166      C1171   1.507       .  S
C1166      C1167   1.410       .  A
C1167      C1168   1.414       .  A
C1167      C1172   1.454       .  S
C1168      C1169   1.426       .  A
C1168      C1184   1.445       .  S
C1169      C1170   1.428   1_455  A
C1170      C1173   1.452       .  S
C1171      C1174   1.415       .  A
C1171      C1178   1.416       .  A
C1172      N1189   1.157       .  T
C1173      N1191   1.158       .  T
C1174      C1175   1.411       .  A
C1174      C1179   1.451       .  S
C1175      C1176   1.413       .  A
C1175      C1181   1.449       .  S
C1176      C1177   1.408       .  A
C1177      C1178   1.410       .  A
C1177      C1180   1.450       .  S
C1178      C1182   1.450       .  S
C1179      N1186   1.157   1_455  T
C1180      N1187   1.157       .  T
C1181      N1185   1.157       .  T
C1182      N1188   1.157       .  T
C1183      N1192   1.157       .  T
C1184      N1190   1.156       .  T
C1193      C1194   1.414   1_455  A
C1193      C1198   1.409   1_455  A
C1193      C1211   1.450       .  S
C1194      C1199   1.497   1_655  S
C1194      C1195   1.412       .  A
C1195      C1196   1.406       .  A
C1195      C1200   1.452       .  S
C1196      C1197   1.415       .  A
C1196      C1212   1.451       .  S
C1197      C1198   1.409       .  A
C1198      C1201   1.450       .  S
C1199      C1202   1.409       .  A
C1199      C1206   1.408       .  A
C1200      N1217   1.157       .  T
C1201      N1219   1.157       .  T
C1202      C1203   1.408       .  A
C1202      C1207   1.452       .  S
C1203      C1204   1.423       .  A
C1203      C1209   1.451       .  S
C1204      C1205   1.424       .  A
C1205      C1206   1.410       .  A
C1205      C1208   1.449       .  S
C1206      C1210   1.453   1_455  S
C1207      N1214   1.157       .  T
C1208      N1215   1.157       .  T
C1209      N1213   1.157       .  T
C1210      N1216   1.157       .  T
C1211      N1220   1.157       .  T
C1212      N1218   1.158       .  T
C1221      C1222   1.409   1_556  A
C1221      C1226   1.411       .  A
C1221      C1239   1.451       .  S
C1222      C1227   1.498   1_554  S
C1222      C1223   1.411       .  A
C1223      C1224   1.413       .  A
C1223      C1228   1.451       .  S
C1224      C1225   1.418       .  A
C1224      C1240   1.451       .  S
C1225      C1226   1.419   1_554  A
C1226      C1229   1.451       .  S
C1227      C1230   1.406       .  A
C1227      C1234   1.409       .  A
C1228      N1245   1.157       .  T
C1229      N1247   1.157       .  T
C1230      C1231   1.409       .  A
C1230      C1235   1.452       .  S
C1231      C1232   1.424       .  A
C1231      C1237   1.449       .  S
C1232      C1233   1.424       .  A
C1233      C1234   1.416       .  A
C1233      C1236   1.448       .  S
C1234      C1238   1.450       .  S
C1235      N1242   1.157       .  T
C1236      N1243   1.158       .  T
C1237      N1241   1.156       .  T
C1238      N1244   1.157       .  T
C1239      N1248   1.157       .  T
C1240      N1246   1.157       .  T
C1249      C1250   1.411       .  A
C1249      C1254   1.414       .  A
C1249      C1267   1.451       .  S
C1250      C1255   1.506       .  S
C1250      C1251   1.412       .  A
C1251      C1252   1.415       .  A
C1251      C1256   1.451       .  S
C1252      C1253   1.418       .  A
C1252      C1268   1.450       .  S
C1253      C1254   1.421       .  A
C1254      C1257   1.451       .  S
C1255      C1258   1.406       .  A
C1255      C1262   1.408       .  A
C1256      N1273   1.157       .  T
C1257      N1275   1.157       .  T
C1258      C1259   1.414       .  A
C1258      C1263   1.452       .  S
C1259      C1260   1.431       .  A
C1259      C1265   1.451       .  S
C1260      C1261   1.429       .  A
C1261      C1262   1.416       .  A
C1261      C1264   1.448       .  S
C1262      C1266   1.452       .  S
C1263      N1270   1.157       .  T
C1264      N1271   1.158       .  T
C1265      N1269   1.157       .  T
C1266      N1272   1.157       .  T
C1267      N1276   1.157       .  T
C1268      N1274   1.157       .  T
C1277      C1278   1.408       .  A
C1277      C1282   1.414       .  A
C1277      C1295   1.452       .  S
C1278      C1283   1.499       .  S
C1278      C1279   1.404       .  A
C1279      C1280   1.412       .  A
C1279      C1284   1.451       .  S
C1280      C1281   1.431       .  A
C1280      C1296   1.452       .  S
C1281      C1282   1.426       .  A
C1282      C1285   1.449       .  S
C1283      C1286   1.410       .  A
C1283      C1290   1.411       .  A
C1284      N1301   1.157       .  T
C1285      N1303   1.158       .  T
C1286      C1287   1.412       .  A
C1286      C1291   1.450       .  S
C1287      C1288   1.415       .  A
C1287      C1293   1.451       .  S
C1288      C1289   1.413       .  A
C1289      C1290   1.412       .  A
C1289      C1292   1.450       .  S
C1290      C1294   1.450       .  S
C1291      N1298   1.157       .  T
C1292      N1299   1.157       .  T
C1293      N1297   1.157       .  T
C1294      N1300   1.157       .  T
C1295      N1304   1.157       .  T
C1296      N1302   1.158       .  T
C1305      C1306   1.411       .  A
C1305      C1310   1.412       .  A
C1305      C1323   1.451       .  S
C1306      C1311   1.504       .  S
C1306      C1307   1.411       .  A
C1307      C1308   1.415       .  A
C1307      C1312   1.450       .  S
C1308      C1309   1.416       .  A
C1308      C1324   1.450       .  S
C1309      C1310   1.419       .  A
C1310      C1313   1.452       .  S
C1311      C1314   1.406       .  A
C1311      C1318   1.405       .  A
C1312      N1329   1.157       .  T
C1313      N1331   1.158       .  T
C1314      C1315   1.418       .  A
C1314      C1319   1.452       .  S
C1315      C1316   1.431       .  A
C1315      C1321   1.447       .  S
C1316      C1317   1.427       .  A
C1317      C1318   1.413       .  A
C1317      C1320   1.446       .  S
C1318      C1322   1.452       .  S
C1319      N1326   1.157   1_556  T
C1320      N1327   1.156       .  T
C1321      N1325   1.158   1_556  T
C1322      N1328   1.157       .  T
C1323      N1332   1.157       .  T
C1324      N1330   1.157       .  T
C1333      C1334   1.412       .  A
C1333      C1338   1.413       .  A
C1333      C1351   1.450   1_655  S
C1334      C1339   1.496   1_655  S
C1334      C1335   1.409       .  A
C1335      C1336   1.408       .  A
C1335      C1340   1.451       .  S
C1336      C1337   1.417       .  A
C1336      C1352   1.452       .  S
C1337      C1338   1.414       .  A
C1338      C1341   1.451       .  S
C1339      C1342   1.409       .  A
C1339      C1346   1.409       .  A
C1340      N1357   1.157       .  T
C1341      N1359   1.157       .  T
C1342      C1343   1.411       .  A
C1342      C1347   1.451       .  S
C1343      C1344   1.419       .  A
C1343      C1349   1.451       .  S
C1344      C1345   1.417       .  A
C1345      C1346   1.412       .  A
C1345      C1348   1.451       .  S
C1346      C1350   1.451   1_455  S
C1347      N1354   1.157       .  T
C1348      N1355   1.157       .  T
C1349      N1353   1.158       .  T
C1350      N1356   1.157       .  T
C1351      N1360   1.157       .  T
C1352      N1358   1.157       .  T
C1361      C1362   1.413       .  A
C1361      C1366   1.411       .  A
C1361      C1379   1.451       .  S
C1362      C1367   1.496       .  S
C1362      C1363   1.409       .  A
C1363      C1364   1.411       .  A
C1363      C1368   1.450       .  S
C1364      C1365   1.416       .  A
C1364      C1380   1.451       .  S
C1365      C1366   1.410       .  A
C1366      C1369   1.449       .  S
C1367      C1370   1.409       .  A
C1367      C1374   1.411       .  A
C1368      N1385   1.157       .  T
C1369      N1387   1.157       .  T
C1370      C1371   1.411       .  A
C1370      C1375   1.451       .  S
C1371      C1372   1.417       .  A
C1371      C1377   1.451       .  S
C1372      C1373   1.414       .  A
C1373      C1374   1.411       .  A
C1373      C1376   1.451       .  S
C1374      C1378   1.450       .  S
C1375      N1382   1.157       .  T
C1376      N1383   1.157       .  T
C1377      N1381   1.157       .  T
C1378      N1384   1.157       .  T
C1379      N1388   1.157       .  T
C1380      N1386   1.157       .  T
C1389      C1390   1.407       .  A
C1389      C1394   1.416       .  A
C1389      C1407   1.451       .  S
C1390      C1395   1.498       .  S
C1390      C1391   1.402       .  A
C1391      C1392   1.410       .  A
C1391      C1396   1.456       .  S
C1392      C1393   1.432       .  A
C1392      C1408   1.446       .  S
C1393      C1394   1.426       .  A
C1394      C1397   1.451   1_565  S
C1395      C1398   1.411       .  A
C1395      C1402   1.410       .  A
C1396      N1413   1.157       .  T
C1397      N1415   1.157       .  T
C1398      C1399   1.411       .  A
C1398      C1403   1.451       .  S
C1399      C1400   1.415       .  A
C1399      C1405   1.450       .  S
C1400      C1401   1.418       .  A
C1401      C1402   1.411       .  A
C1401      C1404   1.452       .  S
C1402      C1406   1.451       .  S
C1403      N1410   1.157       .  T
C1404      N1411   1.158       .  T
C1405      N1409   1.157       .  T
C1406      N1412   1.157       .  T
C1407      N1416   1.157       .  T
C1408      N1414   1.157       .  T
C1417      C1418   1.406       .  A
C1417      C1422   1.405       .  A
C1417      C1435   1.453       .  S
C1418      C1423   1.493       .  S
C1418      C1419   1.412       .  A
C1419      C1420   1.414       .  A
C1419      C1424   1.449       .  S
C1420      C1421   1.411       .  A
C1420      C1436   1.449   1_565  S
C1421      C1422   1.420       .  A
C1422      C1425   1.451       .  S
C1423      C1426   1.408       .  A
C1423      C1430   1.410       .  A
C1424      N1441   1.157       .  T
C1425      N1443   1.157       .  T
C1426      C1427   1.410       .  A
C1426      C1431   1.452       .  S
C1427      C1428   1.420       .  A
C1427      C1433   1.452       .  S
C1428      C1429   1.416       .  A
C1429      C1430   1.411       .  A
C1429      C1432   1.451       .  S
C1430      C1434   1.450       .  S
C1431      N1438   1.157       .  T
C1432      N1439   1.157       .  T
C1433      N1437   1.158       .  T
C1434      N1440   1.157       .  T
C1435      N1444   1.157       .  T
C1436      N1442   1.157       .  T
C1445      C1446   1.411       .  A
C1445      C1450   1.415       .  A
C1445      C1463   1.452       .  S
C1446      C1451   1.505       .  S
C1446      C1447   1.410       .  A
C1447      C1448   1.414       .  A
C1447      C1452   1.452   1_554  S
C1448      C1449   1.423       .  A
C1448      C1464   1.451       .  S
C1449      C1450   1.421       .  A
C1450      C1453   1.450       .  S
C1451      C1454   1.408       .  A
C1451      C1458   1.411       .  A
C1452      N1469   1.157       .  T
C1453      N1471   1.157       .  T
C1454      C1455   1.412       .  A
C1454      C1459   1.451       .  S
C1455      C1456   1.426       .  A
C1455      C1461   1.450       .  S
C1456      C1457   1.423       .  A
C1457      C1458   1.415       .  A
C1457      C1460   1.447       .  S
C1458      C1462   1.451       .  S
C1459      N1466   1.157       .  T
C1460      N1467   1.158       .  T
C1461      N1465   1.157   1_554  T
C1462      N1468   1.157       .  T
C1463      N1472   1.157       .  T
C1464      N1470   1.157   1_554  T
C1473      C1474   1.406       .  A
C1473      C1478   1.409   1_545  A
C1473      C1491   1.452       .  S
C1474      C1479   1.498       .  S
C1474      C1475   1.410       .  A
C1475      C1476   1.414   1_545  A
C1475      C1480   1.451       .  S
C1476      C1477   1.418       .  A
C1476      C1492   1.448       .  S
C1477      C1478   1.424       .  A
C1478      C1481   1.450       .  S
C1479      C1482   1.410       .  A
C1479      C1486   1.410       .  A
C1480      N1497   1.157       .  T
C1481      N1499   1.157       .  T
C1482      C1483   1.413       .  A
C1482      C1487   1.450       .  S
C1483      C1484   1.416       .  A
C1483      C1489   1.450       .  S
C1484      C1485   1.420       .  A
C1485      C1486   1.409       .  A
C1485      C1488   1.453       .  S
C1486      C1490   1.453       .  S
C1487      N1494   1.157       .  T
C1488      N1495   1.158       .  T
C1489      N1493   1.157       .  T
C1490      N1496   1.157       .  T
C1491      N1500   1.157       .  T
C1492      N1498   1.157       .  T
C1501      C1502   1.411       .  A
C1501      C1506   1.410       .  A
C1501      C1519   1.451       .  S
C1502      C1507   1.497       .  S
C1502      C1503   1.412       .  A
C1503      C1504   1.411       .  A
C1503      C1508   1.450       .  S
C1504      C1505   1.412       .  A
C1504      C1520   1.451       .  S
C1505      C1506   1.414       .  A
C1506      C1509   1.452   1_556  S
C1507      C1510   1.410       .  A
C1507      C1514   1.412       .  A
C1508      N1525   1.157       .  T
C1509      N1527   1.157       .  T
C1510      C1511   1.411       .  A
C1510      C1515   1.451       .  S
C1511      C1512   1.413       .  A
C1511      C1517   1.449       .  S
C1512      C1513   1.412       .  A
C1513      C1514   1.410       .  A
C1513      C1516   1.451       .  S
C1514      C1518   1.450       .  S
C1515      N1522   1.157       .  T
C1516      N1523   1.157       .  T
C1517      N1521   1.157       .  T
C1518      N1524   1.157       .  T
C1519      N1528   1.157       .  T
C1520      N1526   1.157       .  T
C1529      C1530   1.410       .  A
C1529      C1534   1.413       .  A
C1529      C1547   1.451       .  S
C1530      C1535   1.500       .  S
C1530      C1531   1.408       .  A
C1531      C1532   1.411       .  A
C1531      C1536   1.451       .  S
C1532      C1533   1.421       .  A
C1532      C1548   1.452       .  S
C1533      C1534   1.420       .  A
C1534      C1537   1.451       .  S
C1535      C1538   1.401       .  A
C1535      C1542   1.406       .  A
C1536      N1553   1.157       .  T
C1537      N1555   1.158       .  T
C1538      C1539   1.410       .  A
C1538      C1543   1.454       .  S
C1539      C1540   1.435       .  A
C1539      C1545   1.452       .  S
C1540      C1541   1.431       .  A
C1541      C1542   1.420       .  A
C1541      C1544   1.445       .  S
C1542      C1546   1.453       .  S
C1543      N1550   1.157       .  T
C1544      N1551   1.158       .  T
C1545      N1549   1.157       .  T
C1546      N1552   1.157       .  T
C1547      N1556   1.157       .  T
C1548      N1554   1.158       .  T
C1557      C1558   1.414       .  A
C1557      C1562   1.413       .  A
C1557      C1575   1.450   1_655  S
C1558      C1563   1.501   1_655  S
C1558      C1559   1.411       .  A
C1559      C1560   1.410       .  A
C1559      C1564   1.451       .  S
C1560      C1561   1.416       .  A
C1560      C1576   1.452       .  S
C1561      C1562   1.413       .  A
C1562      C1565   1.450       .  S
C1563      C1566   1.410       .  A
C1563      C1570   1.413       .  A
C1564      N1581   1.157       .  T
C1565      N1583   1.157       .  T
C1566      C1567   1.411       .  A
C1566      C1571   1.451       .  S
C1567      C1568   1.419       .  A
C1567      C1573   1.452       .  S
C1568      C1569   1.415       .  A
C1569      C1570   1.413       .  A
C1569      C1572   1.450       .  S
C1570      C1574   1.451   1_455  S
C1571      N1578   1.157       .  T
C1572      N1579   1.157       .  T
C1573      N1577   1.157       .  T
C1574      N1580   1.157       .  T
C1575      N1584   1.157       .  T
C1576      N1582   1.157       .  T
C1585      C1586   1.405       .  A
C1585      C1590   1.408   1_545  A
C1585      C1603   1.453       .  S
C1586      C1591   1.496       .  S
C1586      C1587   1.406       .  A
C1587      C1588   1.414   1_545  A
C1587      C1592   1.453       .  S
C1588      C1589   1.431       .  A
C1588      C1604   1.448       .  S
C1589      C1590   1.425       .  A
C1590      C1593   1.450       .  S
C1591      C1594   1.411       .  A
C1591      C1598   1.407       .  A
C1592      N1609   1.157       .  T
C1593      N1611   1.157       .  T
C1594      C1595   1.414       .  A
C1594      C1599   1.451       .  S
C1595      C1596   1.420       .  A
C1595      C1601   1.451       .  S
C1596      C1597   1.421       .  A
C1597      C1598   1.405       .  A
C1597      C1600   1.452       .  S
C1598      C1602   1.453       .  S
C1599      N1606   1.157       .  T
C1600      N1607   1.157       .  T
C1601      N1605   1.158       .  T
C1602      N1608   1.157       .  T
C1603      N1612   1.157       .  T
C1604      N1610   1.158       .  T
C1613      C1614   1.413       .  A
C1613      C1618   1.416       .  A
C1613      C1631   1.449       .  S
C1614      C1619   1.500       .  S
C1614      C1615   1.409       .  A
C1615      C1616   1.407       .  A
C1615      C1620   1.454       .  S
C1616      C1617   1.418       .  A
C1616      C1632   1.450       .  S
C1617      C1618   1.414       .  A
C1618      C1621   1.449       .  S
C1619      C1622   1.409       .  A
C1619      C1626   1.407       .  A
C1620      N1637   1.157       .  T
C1621      N1639   1.157       .  T
C1622      C1623   1.411       .  A
C1622      C1627   1.452       .  S
C1623      C1624   1.425       .  A
C1623      C1629   1.452       .  S
C1624      C1625   1.427       .  A
C1625      C1626   1.413       .  A
C1625      C1628   1.449       .  S
C1626      C1630   1.453       .  S
C1627      N1634   1.157       .  T
C1628      N1635   1.157   1_545  T
C1629      N1633   1.158       .  T
C1630      N1636   1.157       .  T
C1631      N1640   1.157       .  T
C1632      N1638   1.156       .  T
