geometry optimzed in LAMMPS
_audit_creation_date              2020-11-30 
_audit_creation_method            'lammps2cif' 
_symmetry_space_group_name_H-M    'P1' 
_symmetry_Int_Tables_number       1 
_symmetry_cell_setting            triclinic 
loop_ 
_symmetry_equiv_pos_as_xyz 
  x,y,z 
_cell_length_a                    31.13657174 
_cell_length_b                    31.12172952752824 
_cell_length_c                    31.132767242331827 
_cell_angle_alpha                 90.00092491586163 
_cell_angle_beta                  90.00132116409314 
_cell_angle_gamma                 89.99354464148492 
loop_ 
_atom_site_label 
_atom_site_type_symbol 
_atom_site_fract_x 
_atom_site_fract_y 
_atom_site_fract_z 
_atom_site_charge 
N1          N  0.49424208  0.06742506  0.50041443    -0.34200
N2          N  0.50048460  0.00181308  0.43312745    -0.54800
N3          N  0.50640087  0.93596910  0.49966240    -0.34200
N4          N  0.49937162  0.00156988  0.56694192    -0.54800
C5          C  0.49872740  0.09294750  0.46543836     0.29400
C6          C  0.49868131  0.09280248  0.53554525     0.29400
C7          C  0.50334041  0.91046774  0.46448059     0.29400
C8          C  0.50250597  0.91029193  0.53460125     0.29400
C9          C  0.49780495  0.03675366  0.40749330     0.38000
C10         C  0.50246009  0.96712270  0.40705254     0.38000
C11         C  0.49701928  0.03627114  0.59298447     0.38000
C12         C  0.50081361  0.96655298  0.59258728     0.38000
C13         C  0.50495426  0.13510313  0.47859679    -0.19500
C14         C  0.50495654  0.13500507  0.52260007    -0.19500
C15         C  0.49876476  0.86802549  0.47736475    -0.19500
C16         C  0.49821159  0.86791748  0.52136619    -0.19500
C17         C  0.49809481  0.02418660  0.36475652    -0.20500
C18         C  0.50111280  0.98011922  0.36447968    -0.20500
C19         C  0.49686376  0.02321477  0.63555271    -0.20500
C20         C  0.49928892  0.97909523  0.63530560    -0.20500
C21         C  0.49714843  0.07994037  0.42180176    -0.15900
C22         C  0.49697756  0.07962650  0.57913122    -0.15900
C23         C  0.50247152  0.92336082  0.57827206    -0.15900
C24         C  0.50395503  0.92379990  0.42090021    -0.15900
H25         H  0.50940320  0.16321007  0.45861650     0.17000
H26         H  0.50939989  0.16301550  0.54271922     0.17000
H27         H  0.49547120  0.83988730  0.45719889     0.17000
H28         H  0.49444113  0.83967343  0.54129555     0.17000
H29         H  0.49667293  0.04464323  0.33667377     0.15300
H30         H  0.50194725  0.95995942  0.33616013     0.15300
H31         H  0.49558559  0.04337326  0.66385584     0.15300
H32         H  0.49979112  0.95860603  0.66339466     0.15300
H33         H  0.48519676  0.03541455  0.50022669     0.28600
H34         H  0.51361091  0.96840978  0.49990825     0.28600
N35         N  0.06427635  0.49848837  0.49702271    -0.34200
N36         N  0.99887437  0.43098318  0.50018914    -0.54800
N37         N  0.93255540  0.49745957  0.50396337    -0.34200
N38         N  0.99795157  0.56489652  0.50056925    -0.54800
C39         C  0.08989435  0.46356049  0.50148173     0.29400
C40         C  0.08940510  0.53374618  0.50179206     0.29400
C41         C  0.90732586  0.46219859  0.49998979     0.29400
C42         C  0.90682611  0.53237561  0.50005497     0.29400
C43         C  0.03393005  0.40540550  0.49910083     0.38000
C44         C  0.96420754  0.40486727  0.50113038     0.38000
C45         C  0.03260330  0.59101733  0.49940185     0.38000
C46         C  0.96288669  0.59048710  0.50120104     0.38000
C47         C  0.13191310  0.47689389  0.50809025    -0.19500
C48         C  0.13160181  0.52096160  0.50828479    -0.19500
C49         C  0.86493920  0.47498716  0.49474735    -0.19500
C50         C  0.86463286  0.51903575  0.49477700    -0.19500
C51         C  0.02145847  0.36262472  0.49933125    -0.20500
C52         C  0.97732839  0.36228628  0.50069210    -0.20500
C53         C  0.01946711  0.63359259  0.49932973    -0.20500
C54         C  0.97535115  0.63325734  0.50052786    -0.20500
C55         C  0.07705988  0.41984838  0.49952506    -0.15900
C56         C  0.07595711  0.57728497  0.50003072    -0.15900
C57         C  0.91974063  0.57609012  0.50106276    -0.15900
C58         C  0.92085494  0.41865393  0.50099606    -0.15900
H59         H  0.16004891  0.45697849  0.51263327     0.17000
H60         H  0.15945108  0.54123583  0.51295942     0.17000
H61         H  0.83694165  0.45474219  0.49090651     0.17000
H62         H  0.83638116  0.53893186  0.49092849     0.17000
H63         H  0.04199664  0.33456153  0.49895432     0.15300
H64         H  0.95722128  0.33391736  0.50107708     0.15300
H65         H  0.03955522  0.66197136  0.49880796     0.15300
H66         H  0.95481756  0.66132438  0.50062505     0.15300
H67         H  0.03242955  0.49827202  0.48770591     0.28600
H68         H  0.96473098  0.49767486  0.51195561     0.28600
N69         N  0.50043534  0.50032610  0.93384449    -0.34200
N70         N  0.43378689  0.49892009  0.99966579    -0.54800
N71         N  0.50025753  0.49953922  0.06531116    -0.34200
N72         N  0.56689245  0.49822694  0.99960453    -0.54800
C73         C  0.46536393  0.49264861  0.90931335     0.29400
C74         C  0.53545009  0.49251762  0.90925391     0.29400
C75         C  0.46516532  0.49191639  0.08983872     0.29400
C76         C  0.53524470  0.49145128  0.08983574     0.29400
C77         C  0.40861406  0.50485273  0.96477483     0.38000
C78         C  0.40853878  0.50480778  0.03452768     0.38000
C79         C  0.59215978  0.50426910  0.96477124     0.38000
C80         C  0.59205450  0.50397870  0.03456382     0.38000
C81         C  0.47830333  0.48035519  0.86846552    -0.19500
C82         C  0.52240668  0.48027509  0.86842671    -0.19500
C83         C  0.47806965  0.47924028  0.13057106    -0.19500
C84         C  0.52215456  0.47893823  0.13056857    -0.19500
C85         C  0.36691757  0.51390985  0.97752611    -0.20500
C86         C  0.36687572  0.51389727  0.02172621    -0.20500
C87         C  0.63382140  0.51322336  0.97765898    -0.20500
C88         C  0.63375000  0.51305815  0.02186723    -0.20500
C89         C  0.42209821  0.49927412  0.92172087    -0.15900
C90         C  0.57875938  0.49891802  0.92164117    -0.15900
C91         C  0.57854902  0.49821013  0.07761746    -0.15900
C92         C  0.42195130  0.49908961  0.07758567    -0.15900
H93         H  0.45815939  0.47284000  0.84115909     0.17000
H94         H  0.54247315  0.47268399  0.84108520     0.17000
H95         H  0.45794455  0.47173315  0.15788690     0.17000
H96         H  0.54215762  0.47118295  0.15790274     0.17000
H97         H  0.33928900  0.51934836  0.95713766     0.15300
H98         H  0.33921251  0.51929544  0.04207610     0.15300
H99         H  0.66148809  0.51875680  0.95735323     0.15300
H100        H  0.66136042  0.51841546  0.04229549     0.15300
H101        H  0.50046688  0.51496006  0.96374573     0.28600
H102        H  0.50037015  0.51451804  0.03558025     0.28600
N103        N  0.00618003  0.56633212  0.99945641    -0.34200
N104        N  0.99959669  0.50102961  0.06680006    -0.54800
N105        N  0.99378629  0.43500988  0.00041479    -0.34200
N106        N  0.00019026  0.50040061  0.93310816    -0.54800
C107        C  0.00132021  0.59192202  0.03434343     0.29400
C108        C  0.00173112  0.59160222  0.96426059     0.29400
C109        C  0.99733030  0.40963139  0.03561116     0.29400
C110        C  0.99742461  0.40924993  0.96551923     0.29400
C111        C  0.00262862  0.53595588  0.09237376     0.38000
C112        C  0.99834685  0.46638427  0.09292500     0.38000
C113        C  0.00323180  0.53496654  0.90699939     0.38000
C114        C  0.99865549  0.46538150  0.90750523     0.38000
C115        C  0.99484889  0.63399033  0.02107210    -0.19500
C116        C  0.99513094  0.63379317  0.97706151    -0.19500
C117        C  0.00207409  0.36717605  0.02280667    -0.19500
C118        C  0.00211566  0.36693686  0.97879552    -0.19500
C119        C  0.00326391  0.52344642  0.13512148    -0.20500
C120        C  0.00050310  0.47938840  0.13547223    -0.20500
C121        C  0.00368223  0.52183688  0.86445573    -0.20500
C122        C  0.00071048  0.47779045  0.86476743    -0.20500
C123        C  0.00297951  0.57906613  0.07799624    -0.15900
C124        C  0.00357056  0.57830350  0.92074071    -0.15900
C125        C  0.99701031  0.42225938  0.92186558    -0.15900
C126        C  0.99684258  0.42309620  0.07912520    -0.15900
H127        H  0.99005634  0.66208150  0.04099789     0.17000
H128        H  0.99056167  0.66169989  0.95682623     0.17000
H129        H  0.00572978  0.33912124  0.04302783     0.17000
H130        H  0.00579762  0.33866889  0.95888072     0.17000
H131        H  0.00524715  0.54392194  0.16315783     0.15300
H132        H  0.00045970  0.45923946  0.16381256     0.15300
H133        H  0.00558545  0.54190097  0.83612223     0.15300
H134        H  0.00041396  0.45724966  0.83671056     0.15300
H135        H  0.01553188  0.53439008  0.99971603     0.28600
H136        H  0.98636688  0.46740917  0.00017397     0.28600
N137        N  0.43202652  0.99848966  0.00284413    -0.34200
N138        N  0.49795233  0.06511082  0.99869360    -0.54800
N139        N  0.56372497  0.99798319  0.99543497    -0.34200
N140        N  0.49768563  0.93129082  0.99926729    -0.54800
C141        C  0.40668025  0.03363246  0.99846020     0.29400
C142        C  0.40648467  0.96348646  0.99871284     0.29400
C143        C  0.58916004  0.03302774  0.00005356     0.29400
C144        C  0.58904808  0.96285019  0.00005922     0.29400
C145        C  0.46321938  0.09110863  0.99984645     0.38000
C146        C  0.53286164  0.09085913  0.99798666     0.38000
C147        C  0.46272752  0.90556768  0.00031694     0.38000
C148        C  0.53245996  0.90531017  0.99823667     0.38000
C149        C  0.36444846  0.02071623  0.99255236    -0.19500
C150        C  0.36431556  0.97666762  0.99272660    -0.19500
C151        C  0.63127515  0.01991223  0.00641446    -0.19500
C152        C  0.63121042  0.97584367  0.00640788    -0.19500
C153        C  0.47612914  0.13374456  0.99970679    -0.20500
C154        C  0.52021721  0.13359094  0.99846827    -0.20500
C155        C  0.47537135  0.86284444  0.99990671    -0.20500
C156        C  0.51950198  0.86268025  0.99850965    -0.20500
C157        C  0.41997274  0.07718985  0.99987927    -0.15900
C158        C  0.41952562  0.91983264  0.00031585    -0.15900
C159        C  0.57576238  0.91924752  0.99874057    -0.15900
C160        C  0.57602454  0.07666283  0.99872345    -0.15900
H161        H  0.33647133  0.04089742  0.98820840     0.17000
H162        H  0.33619122  0.95666920  0.98852949     0.17000
H163        H  0.65928233  0.03997858  0.01106357     0.17000
H164        H  0.65917018  0.95570602  0.01105285     0.17000
H165        H  0.45591468  0.16203671  0.00032605     0.15300
H166        H  0.54061587  0.16175291  0.99842916     0.15300
H167        H  0.45494593  0.83470568  0.00031972     0.15300
H168        H  0.53972095  0.83438676  0.99812771     0.15300
H169        H  0.46403973  0.99839182  0.01156277     0.28600
H170        H  0.53179088  0.99804540  0.98645025     0.28600
Zn171      Zn  0.71370667  0.71246455  0.71399796     1.49700
Zn172      Zn  0.75587711  0.72441720  0.80786262     1.49400
Zn173      Zn  0.80817851  0.75341632  0.72483410     1.49100
Zn174      Zn  0.72576690  0.80684540  0.75463096     1.49500
O175        O  0.75071672  0.74914294  0.75019657    -1.81700
O176        O  0.69203530  0.66087605  0.74773685    -0.72400
O177        O  0.81745004  0.70965602  0.82250265    -0.72200
O178        O  0.81150963  0.71938624  0.67034429    -0.71700
O179        O  0.72218502  0.66955939  0.81202915    -0.72400
O180        O  0.74664725  0.69036256  0.66227667    -0.72000
O181        O  0.85376875  0.72968320  0.76430649    -0.72600
O182        O  0.76598182  0.85188307  0.73136513    -0.71900
O183        O  0.73190802  0.76443291  0.85287346    -0.72700
O184        O  0.82296456  0.81459526  0.70957080    -0.72100
O185        O  0.70988508  0.82155204  0.81588542    -0.72600
O186        O  0.67200237  0.81116717  0.71952296    -0.72500
O187        O  0.66237033  0.74601915  0.69158749    -0.72300
C188        C  0.69862069  0.64850094  0.78619036     0.79500
C189        C  0.85240199  0.71313557  0.80162908     0.80000
C190        C  0.78508483  0.69623356  0.64960926     0.79000
C191        C  0.80286313  0.84988681  0.71393890     0.79400
C192        C  0.71424785  0.80124764  0.85109108     0.80500
C193        C  0.65080986  0.78496610  0.69652865     0.79500
Zn194      Zn  0.30975274  0.74613473  0.77371498     1.49700
Zn195      Zn  0.21531123  0.78672919  0.78401931     1.49400
Zn196      Zn  0.25753956  0.77373284  0.69016327     1.49100
Zn197      Zn  0.22724814  0.69225332  0.74445810     1.49500
O198        O  0.25234076  0.74984802  0.74820969    -1.81700
O199        O  0.31255710  0.77946516  0.82880792    -0.72400
O200        O  0.19476955  0.83824183  0.74992344    -0.72200
O201        O  0.31905466  0.78736149  0.67490606    -0.71700
O202        O  0.24758325  0.80833362  0.83645174    -0.72400
O203        O  0.35506555  0.77036204  0.73427029    -0.72000
O204        O  0.22502603  0.82906383  0.68572502    -0.72600
O205        O  0.21088934  0.67724920  0.68360320    -0.71900
O206        O  0.16308125  0.75402917  0.80551169    -0.72700
O207        O  0.23222269  0.73402419  0.64573358    -0.72100
O208        O  0.17308901  0.68825278  0.77932664    -0.72600
O209        O  0.26786875  0.64752957  0.76752126    -0.72500
O210        O  0.32513327  0.68499624  0.78832834    -0.72300
C211        C  0.28583161  0.80224082  0.84960505     0.79500
C212        C  0.20168951  0.85042115  0.71149604     0.80000
C213        C  0.35379988  0.78530257  0.69627138     0.79000
C214        C  0.21443995  0.69732302  0.64821445     0.79400
C215        C  0.15141330  0.71505500  0.80118811     0.80500
C216        C  0.30503274  0.64966509  0.78433270     0.79500
Zn217      Zn  0.72372614  0.19066661  0.75438248     1.49700
Zn218      Zn  0.75359727  0.27276817  0.80774522     1.49400
Zn219      Zn  0.80646445  0.24366794  0.72503829     1.49100
Zn220      Zn  0.71257240  0.28535724  0.71367699     1.49500
O221        O  0.74889460  0.24822864  0.75002100    -1.81700
O222        O  0.70859077  0.17554233  0.81576139    -0.72400
O223        O  0.81477233  0.28772611  0.82256543    -0.72200
O224        O  0.82117075  0.18256399  0.70970814    -0.71700
O225        O  0.72978382  0.23297844  0.85267901    -0.72400
O226        O  0.76343016  0.14559797  0.72998747    -0.72000
O227        O  0.85163506  0.26742355  0.76478325    -0.72600
O228        O  0.74580029  0.30660109  0.66157397    -0.71900
O229        O  0.71995922  0.32736880  0.81216102    -0.72700
O230        O  0.81045993  0.27738696  0.67048050    -0.72100
O231        O  0.69163589  0.33732115  0.74725337    -0.72600
O232        O  0.66035534  0.25256478  0.69235713    -0.72500
O233        O  0.66907311  0.18737558  0.72056734    -0.72300
C234        C  0.71259179  0.19598932  0.85092650     0.79500
C235        C  0.84985065  0.28421086  0.80197374     0.80000
C236        C  0.80060027  0.14745490  0.71313421     0.79000
C237        C  0.78432657  0.30041179  0.64926314     0.79400
C238        C  0.69738573  0.34907069  0.78602512     0.80500
C239        C  0.64796314  0.21395787  0.69791790     0.79500
Zn240      Zn  0.28406474  0.28830984  0.71397322     1.49700
Zn241      Zn  0.19067404  0.24552330  0.72697682     1.49400
Zn242      Zn  0.27478240  0.19415800  0.75498160     1.49100
Zn243      Zn  0.24406275  0.27582601  0.80869840     1.49500
O244        O  0.24853574  0.25116226  0.75100440    -1.81700
O245        O  0.24987643  0.30854025  0.66223308    -0.72400
O246        O  0.17668943  0.18403766  0.71262217    -0.72200
O247        O  0.32948003  0.19142613  0.72136862    -0.71700
O248        O  0.18568604  0.27847329  0.67185975    -0.72400
O249        O  0.33642678  0.25612111  0.69173100    -0.72000
O250        O  0.23620874  0.14869981  0.73047825    -0.72600
O251        O  0.26761556  0.23558395  0.85342675    -0.71900
O252        O  0.14567418  0.26892583  0.76709474    -0.72700
O253        O  0.28928567  0.17863302  0.81599657    -0.72100
O254        O  0.18292776  0.29095334  0.82397196    -0.72600
O255        O  0.27821647  0.33018254  0.81271502    -0.72500
O256        O  0.30504317  0.34048520  0.74718316    -0.72300
C257        C  0.21140397  0.30158352  0.65018552     0.79500
C258        C  0.19848663  0.14958493  0.71494778     0.80000
C259        C  0.34967199  0.21787459  0.69779587     0.79000
C260        C  0.28487195  0.19862433  0.85131547     0.79400
C261        C  0.14763373  0.28640382  0.80394665     0.80500
C262        C  0.30022036  0.35198874  0.78616511     0.79500
Zn263      Zn  0.71450880  0.71219939  0.28589931     1.49700
Zn264      Zn  0.80897272  0.75356486  0.27469745     1.49400
Zn265      Zn  0.75579870  0.72429902  0.19190036     1.49100
Zn266      Zn  0.72670983  0.80709437  0.24577663     1.49500
O267        O  0.75131547  0.74914140  0.24969562    -1.81700
O268        O  0.74798117  0.69008780  0.33747367    -0.72400
O269        O  0.85385365  0.72939202  0.23486846    -0.72200
O270        O  0.72204542  0.66950020  0.18766190    -0.71700
O271        O  0.81255661  0.71980605  0.32939809    -0.72400
O272        O  0.69209812  0.66078192  0.25199737    -0.72000
O273        O  0.81735743  0.70976982  0.17659302    -0.72600
O274        O  0.70992320  0.82158351  0.18468090    -0.71900
O275        O  0.82464307  0.81486605  0.28953038    -0.72700
O276        O  0.73063472  0.76414036  0.14740138    -0.72100
O277        O  0.76740991  0.85230649  0.26881355    -0.72600
O278        O  0.67287904  0.81117108  0.28100305    -0.72500
O279        O  0.66319904  0.74578606  0.30840369    -0.72300
C280        C  0.78637965  0.69637550  0.35015521     0.79500
C281        C  0.85236711  0.71312822  0.19743454     0.80000
C282        C  0.69834142  0.64854658  0.21342753     0.79000
C283        C  0.71313468  0.80102316  0.14949063     0.79400
C284        C  0.80461085  0.85027000  0.28562466     0.80500
C285        C  0.65154099  0.78473131  0.30361997     0.79500
Zn286      Zn  0.30925355  0.74694340  0.22636480     1.49700
Zn287      Zn  0.22745449  0.69236695  0.25617990     1.49400
Zn288      Zn  0.25704251  0.77458385  0.31003783     1.49100
Zn289      Zn  0.21431218  0.78683695  0.21650677     1.49500
O290        O  0.25190639  0.75030208  0.25213629    -1.81700
O291        O  0.32464344  0.68584899  0.21069564    -0.72400
O292        O  0.21088479  0.67770430  0.31714653    -0.72200
O293        O  0.31857999  0.78867190  0.32513344    -0.71700
O294        O  0.26830659  0.64779568  0.23290445    -0.72400
O295        O  0.35463670  0.77105462  0.26597154    -0.72000
O296        O  0.23160184  0.73500085  0.35461543    -0.72600
O297        O  0.19333771  0.83845479  0.25043273    -0.71900
O298        O  0.17345763  0.68764777  0.22125282    -0.72700
O299        O  0.22447286  0.82993853  0.31426508    -0.72100
O300        O  0.16265680  0.75326519  0.19494310    -0.72600
O301        O  0.24629393  0.80904871  0.16425946    -0.72500
O302        O  0.31174288  0.78124835  0.17184431    -0.72300
C303        C  0.30502410  0.65027305  0.21515331     0.79500
C304        C  0.21400338  0.69818135  0.35236387     0.80000
C305        C  0.35335795  0.78642596  0.30381484     0.79000
C306        C  0.20073445  0.85103506  0.28865257     0.79400
C307        C  0.15151867  0.71413089  0.19927795     0.80500
C308        C  0.28469664  0.80381689  0.15122743     0.79500
Zn309      Zn  0.75304027  0.27345005  0.19264724     1.49700
Zn310      Zn  0.72434729  0.19069676  0.24645938     1.49400
Zn311      Zn  0.80671246  0.24467676  0.27511689     1.49100
Zn312      Zn  0.71226031  0.28550685  0.28672151     1.49500
O313        O  0.74893377  0.24864564  0.25038493    -1.81700
O314        O  0.72772674  0.23381098  0.14817813    -0.72400
O315        O  0.76498679  0.14594513  0.27026519    -0.72200
O316        O  0.85157650  0.26780803  0.23452595    -0.71700
O317        O  0.70803750  0.17582704  0.18514609    -0.72400
O318        O  0.81431517  0.28752228  0.17678365    -0.72000
O319        O  0.82189001  0.18367731  0.29147066    -0.72600
O320        O  0.74553902  0.30781010  0.33814555    -0.71900
O321        O  0.67026078  0.18674138  0.28142563    -0.72700
O322        O  0.81064565  0.27965939  0.32894527    -0.72100
O323        O  0.66094789  0.25212456  0.30898688    -0.72600
O324        O  0.69019359  0.33712464  0.25327860    -0.72500
O325        O  0.71998532  0.32864700  0.18885043    -0.72300
C326        C  0.71085956  0.19664338  0.15004959     0.79500
C327        C  0.80190074  0.14823660  0.28765748     0.80000
C328        C  0.84959145  0.28400572  0.19707350     0.79000
C329        C  0.78429745  0.30252969  0.35008900     0.79400
C330        C  0.64902593  0.21330858  0.30401291     0.80500
C331        C  0.69661402  0.34966206  0.21486722     0.79500
N332        N  0.00198207  0.99841295  0.43519746    -0.34200
N333        N  0.93575596  0.99986631  0.50124736    -0.54800
N334        N  0.00257615  0.99798969  0.56676372    -0.34200
N335        N  0.06876379  0.99972617  0.50063261    -0.54800
C336        C  0.96683675  0.00573628  0.41066459     0.29400
C337        C  0.03690132  0.00585737  0.41038404     0.29400
C338        C  0.96765106  0.00535615  0.59158307     0.29400
C339        C  0.03769359  0.00574687  0.59118101     0.29400
C340        C  0.91025825  0.99449388  0.46648927     0.38000
C341        C  0.91061840  0.99421667  0.53620907     0.38000
C342        C  0.09405621  0.99487002  0.46569909     0.38000
C343        C  0.09436164  0.99488850  0.53534025     0.38000
C344        C  0.97963466  0.01738516  0.36959761    -0.19500
C345        C  0.02372316  0.01744241  0.36941343    -0.19500
C346        C  0.98077809  0.01725070  0.63247581    -0.19500
C347        C  0.02487215  0.01751289  0.63222323    -0.19500
C348        C  0.86849392  0.98613734  0.47943918    -0.20500
C349        C  0.86871988  0.98594958  0.52360717    -0.20500
C350        C  0.13614948  0.98754407  0.47826631    -0.20500
C351        C  0.13634449  0.98755987  0.52240968    -0.20500
C352        C  0.92359310  0.99956390  0.42333388    -0.15900
C353        C  0.08027883  0.99998833  0.42274372    -0.15900
C354        C  0.08095182  0.99998960  0.57840719    -0.15900
C355        C  0.92432893  0.99918793  0.57924701    -0.15900
H356        H  0.95939251  0.02452787  0.34226204     0.17000
H357        H  0.04370026  0.02463193  0.34189929     0.17000
H358        H  0.96074886  0.02453410  0.65993233     0.17000
H359        H  0.04509241  0.02501430  0.65947793     0.17000
H360        H  0.84067651  0.98114982  0.45919752     0.15300
H361        H  0.84109458  0.98082037  0.54407726     0.15300
H362        H  0.16393684  0.98334335  0.45780066     0.15300
H363        H  0.16431112  0.98337159  0.54263403     0.15300
H364        H  0.00211903  0.98431874  0.46530621     0.28600
H365        H  0.00246774  0.98371052  0.53671970     0.28600
C366        C  0.15243192  0.03865348  0.33654594     0.82600
N367        N  0.12586178  0.03834921  0.37107717    -0.75700
C368        C  0.11307097  0.00041072  0.38846687     0.85100
N369        N  0.12683959  0.96280738  0.37108521    -0.75600
C370        C  0.15350427  0.96317739  0.33659791     0.85200
N371        N  0.16629301  0.00109034  0.31938145    -0.77300
Zn372      Zn  0.24431962  0.27621053  0.19122702     1.49700
Zn373      Zn  0.19095433  0.24660414  0.27366470     1.49400
Zn374      Zn  0.27384049  0.19376231  0.24476028     1.49100
Zn375      Zn  0.28512253  0.28783474  0.28564599     1.49500
O376        O  0.24866769  0.25129087  0.24891478    -1.81700
O377        O  0.18310714  0.29195341  0.17652643    -0.72400
O378        O  0.17613129  0.18531719  0.28874276    -0.72200
O379        O  0.28799241  0.17822640  0.18360884    -0.71700
O380        O  0.14601932  0.27041462  0.23373151    -0.72400
O381        O  0.26728590  0.23557961  0.14622074    -0.72000
O382        O  0.23449690  0.14889053  0.26934477    -0.72600
O383        O  0.33703725  0.25471959  0.30743687    -0.71900
O384        O  0.18687642  0.28031505  0.32838620    -0.72700
O385        O  0.32873834  0.18999458  0.27819496    -0.72100
O386        O  0.25176122  0.30900104  0.33745363    -0.72600
O387        O  0.30659813  0.33985910  0.25255992    -0.72500
O388        O  0.27897409  0.33049348  0.18723859    -0.72300
C389        C  0.14789553  0.28776861  0.19681165     0.79500
C390        C  0.19716597  0.15042103  0.28576857     0.80000
C391        C  0.28395059  0.19831199  0.14829027     0.79000
C392        C  0.34961729  0.21624282  0.30142434     0.79400
C393        C  0.21318759  0.30310468  0.34968230     0.80500
C394        C  0.30144992  0.35186666  0.21378196     0.79500
C395        C  0.96040245  0.33445351  0.14939295     0.82600
N396        N  0.99842358  0.31754419  0.16225368    -0.75700
C397        C  0.03584105  0.33619250  0.15005146     0.85100
N398        N  0.03527298  0.37186196  0.12500610    -0.75600
C399        C  0.99724414  0.38897914  0.11214490     0.85200
N400        N  0.95979680  0.37003225  0.12417035    -0.77300
C401        C  0.33381012  0.15005036  0.03757556     0.82600
N402        N  0.31717758  0.16397508  0.99985859    -0.75700
C403        C  0.33462048  0.15096174  0.96217965     0.85100
N404        N  0.36900356  0.12416159  0.96212753    -0.75600
C405        C  0.38590430  0.11028349  0.99990621     0.85200
N406        N  0.36807646  0.12307216  0.03765962    -0.77300
C407        C  0.46088773  0.16835479  0.35091364     0.82600
N408        N  0.49896854  0.18561359  0.33867864    -0.75700
C409        C  0.53636454  0.16751372  0.35178214     0.85100
N410        N  0.53571250  0.13193251  0.37693694    -0.75600
C411        C  0.49765818  0.11440848  0.38912402     0.85200
N412        N  0.46021152  0.13286154  0.37629644    -0.77300
C413        C  0.85046758  0.03710317  0.33728904     0.82600
N414        N  0.83840844  0.99935128  0.31916557    -0.75700
C415        C  0.85238740  0.96156968  0.33579763     0.85100
N416        N  0.87862847  0.96155398  0.37066915    -0.75600
C417        C  0.89060781  0.99932981  0.38909797     0.85200
N418        N  0.87653431  0.03710192  0.37224657    -0.77300
C419        C  0.66205278  0.15024230  0.96256054     0.82600
N420        N  0.67815868  0.16424186  0.00056799    -0.75700
C421        C  0.66047818  0.15081247  0.03808702     0.85100
N422        N  0.62649124  0.12347396  0.03755839    -0.75600
C423        C  0.61016098  0.10963797  0.99948881     0.85200
N424        N  0.62815201  0.12289336  0.96204061    -0.77300
C425        C  0.64924812  0.46147920  0.16610231     0.82600
N426        N  0.66223018  0.49943720  0.18306909    -0.75700
C427        C  0.64972654  0.53700312  0.16488623     0.85100
N428        N  0.62419723  0.53661641  0.12947463    -0.75600
C429        C  0.61125991  0.49860514  0.11219003     0.85200
N430        N  0.62380117  0.46104637  0.13068371    -0.77300
C431        C  0.83314275  0.34728349  0.53745396     0.82600
N432        N  0.86880721  0.37236640  0.53787828    -0.75700
C433        C  0.88677251  0.38554530  0.50033875     0.85100
N434        N  0.86855879  0.37392980  0.46238309    -0.75600
C435        C  0.83284234  0.34891226  0.46202578     0.85200
N436        N  0.81525634  0.33553113  0.49954106    -0.77300
C437        C  0.35070423  0.46326042  0.16592431     0.82600
N438        N  0.37588724  0.46252480  0.13032591    -0.75700
C439        C  0.38925504  0.49992693  0.11211697     0.85100
N440        N  0.37732626  0.53807060  0.12977657    -0.75600
C441        C  0.35198112  0.53876612  0.16528251     0.85200
N442        N  0.33875377  0.50137219  0.18330778    -0.77300
C443        C  0.96476350  0.66517777  0.15051130     0.82600
N444        N  0.96502536  0.63035793  0.12429448    -0.78900
C445        C  0.00289840  0.61350464  0.11066372     0.85100
N446        N  0.04052856  0.63179844  0.12310356    -0.75600
C447        C  0.04026366  0.66648541  0.14955109     0.85200
N448        N  0.00237930  0.68312420  0.16323123    -0.77300
C449        C  0.33046308  0.85095664  0.03828397     0.82600
N450        N  0.36620422  0.87592003  0.03822107    -0.75700
C451        C  0.38505177  0.88714158  0.00049285     0.85100
N452        N  0.36759315  0.87378709  0.96277565    -0.75600
C453        C  0.33169330  0.84903076  0.96281793     0.85200
N454        N  0.31324512  0.83750268  0.00057927    -0.77300
C455        C  0.46512448  0.83625290  0.35038865     0.82600
N456        N  0.50256754  0.81714009  0.33901420    -0.75700
C457        C  0.54055227  0.83394704  0.35208599     0.85100
N458        N  0.54111173  0.86995129  0.37673197    -0.75600
C459        C  0.50367404  0.88946960  0.38793896     0.85200
N460        N  0.46565315  0.87239778  0.37483480    -0.77300
C461        C  0.16151215  0.65092220  0.53803872     0.82600
N462        N  0.12749311  0.62361976  0.53807027    -0.75700
C463        C  0.10991423  0.61057721  0.50026144     0.85100
N464        N  0.12683625  0.62456646  0.46250346    -0.75600
C465        C  0.16085297  0.65186655  0.46259635     0.85200
N466        N  0.17805918  0.66502602  0.50033925    -0.77300
C467        C  0.66328358  0.84732725  0.96252737     0.82600
N468        N  0.62849605  0.87359861  0.96198181    -0.75700
C469        C  0.60993799  0.88619566  0.99942559     0.85100
N470        N  0.62673204  0.87287894  0.03750055    -0.75600
C471        C  0.66163434  0.84669044  0.03803493     0.85200
N472        N  0.67980201  0.83390190  0.00054467    -0.77300
C473        C  0.16393364  0.34796446  0.53742725     0.82600
N474        N  0.12851601  0.37341146  0.53732635    -0.75700
C475        C  0.11159714  0.38722441  0.49952512     0.85100
N476        N  0.13044559  0.37572746  0.46187918    -0.75600
C477        C  0.16571037  0.35009145  0.46199837     0.85200
N478        N  0.18242851  0.33623943  0.49976571    -0.77300
C479        C  0.96043959  0.33554406  0.84908907     0.82600
N480        N  0.95990507  0.37007486  0.87573027    -0.75700
C481        C  0.99744024  0.38787883  0.88913842     0.85100
N482        N  0.03542785  0.37058128  0.87640835    -0.75600
C483        C  0.03586877  0.33595698  0.84994284     0.85200
N484        N  0.99840178  0.31859547  0.83616549    -0.77300
C485        C  0.15363019  0.03790753  0.66441878     0.82600
N486        N  0.12706666  0.03793033  0.62988638    -0.75700
C487        C  0.11397698  0.00014218  0.61240828     0.85100
N488        N  0.12745868  0.96239890  0.62966903    -0.75600
C489        C  0.15412964  0.96247903  0.66412979     0.85200
N490        N  0.16719524  0.00021354  0.68147856    -0.77300
C491        C  0.46047733  0.16913252  0.64861051     0.82600
N492        N  0.49845659  0.18610692  0.66137970    -0.75700
C493        C  0.53588082  0.16736150  0.64946581     0.85100
N494        N  0.53537931  0.13136402  0.62480535    -0.75600
C495        C  0.49735418  0.11403092  0.61206180     0.85200
N496        N  0.45988412  0.13319304  0.62382965    -0.77300
C497        C  0.34960484  0.46291905  0.83460848     0.82600
N498        N  0.37544729  0.46234476  0.86974070    -0.75700
C499        C  0.38932543  0.49986440  0.88732092     0.85100
N500        N  0.37740202  0.53788236  0.86944502    -0.75600
C501        C  0.35147620  0.53834689  0.83439013     0.85200
N502        N  0.33758790  0.50090170  0.81706917    -0.77300
C503        C  0.84983078  0.03657798  0.66421943     0.82600
N504        N  0.87725489  0.03674347  0.63033064    -0.75700
C505        C  0.89154006  0.99901554  0.61359269     0.85100
N506        N  0.87846924  0.96117967  0.63103899    -0.75600
C507        C  0.85100003  0.96111988  0.66490168     0.85200
N508        N  0.83670495  0.99879210  0.68140837    -0.77300
C509        C  0.96461699  0.66437877  0.84843663     0.82600
N510        N  0.96522202  0.62896249  0.87390254    -0.75700
C511        C  0.00326097  0.61249095  0.88766810     0.85100
N512        N  0.04066815  0.63181882  0.87606648    -0.75600
C513        C  0.04005811  0.66705267  0.85032632     0.85200
N514        N  0.00203304  0.68329410  0.83660626    -0.77300
C515        C  0.46493837  0.83542936  0.64900957     0.82600
N516        N  0.46486657  0.87127877  0.62414815    -0.75700
C517        C  0.50262094  0.88881670  0.61093380     0.85100
N518        N  0.54036793  0.87001030  0.62230705    -0.75600
C519        C  0.54034133  0.83426242  0.64731083     0.85200
N520        N  0.50264959  0.81707543  0.66063207    -0.77300
C521        C  0.65065705  0.46114727  0.83459276     0.82600
N522        N  0.62479594  0.46116794  0.86970696    -0.75700
C523        C  0.61165010  0.49896207  0.88725198     0.85100
N524        N  0.62440489  0.53672851  0.86934285    -0.75600
C525        C  0.65048462  0.53665787  0.83434655     0.85200
N526        N  0.66356204  0.49887040  0.81705459    -0.77300
C527        C  0.83230386  0.64782710  0.53783214     0.82600
N528        N  0.86714901  0.62162894  0.53817571    -0.75700
C529        C  0.88527030  0.60881279  0.50059992     0.85100
N530        N  0.86807233  0.62192937  0.46265184    -0.75600
C531        C  0.83317797  0.64811815  0.46236733     0.85200
N532        N  0.81543582  0.66113204  0.49995269    -0.77300
C533        C  0.18422497  0.33600620  0.42220282    -0.10900
C534        C  0.19860980  0.32219073  0.38901026    -0.12400
C535        C  0.32111592  0.39096469  0.19915459    -0.10900
C536        C  0.33558374  0.42382223  0.18453849    -0.12400
C537        C  0.38867645  0.20155952  0.32110946    -0.10900
C538        C  0.42144648  0.18688516  0.33570491    -0.12400
C539        C  0.30009387  0.17896738  0.10973504    -0.10900
C540        C  0.31541662  0.16463291  0.07720800    -0.12400
C541        C  0.07592592  0.31856178  0.16436241    -0.10900
C542        C  0.10907717  0.30398946  0.17804475    -0.12400
C543        C  0.17894017  0.11165123  0.30264163    -0.10900
C544        C  0.16595001  0.07861495  0.31806314    -0.12400
C545        C  0.81406947  0.33570441  0.42207154    -0.10900
C546        C  0.79911273  0.32216252  0.38903249    -0.12400
C547        C  0.67739304  0.38890580  0.20000866    -0.10900
C548        C  0.66349574  0.42186289  0.18504820    -0.12400
C549        C  0.67829572  0.16505631  0.07825443    -0.10900
C550        C  0.69354557  0.17829970  0.11136310    -0.12400
C551        C  0.82102247  0.10970431  0.30445979    -0.10900
C552        C  0.83528288  0.07693254  0.31951527    -0.12400
C553        C  0.60991372  0.19888582  0.32365156    -0.10900
C554        C  0.57654920  0.18506352  0.33761017    -0.12400
C555        C  0.88823756  0.30012676  0.17779248    -0.10900
C556        C  0.92092269  0.31544242  0.16374676    -0.12400
C557        C  0.19585128  0.67985126  0.39057987    -0.10900
C558        C  0.17949463  0.66625114  0.42295271    -0.12400
C559        C  0.42509803  0.81823505  0.33612940    -0.10900
C560        C  0.39220468  0.80298270  0.32242811    -0.12400
C561        C  0.29821313  0.82325573  0.11166779    -0.10900
C562        C  0.31207969  0.83704282  0.07822859    -0.12400
C563        C  0.11276492  0.69907790  0.17927342    -0.10900
C564        C  0.07996343  0.68458150  0.16458316    -0.12400
C565        C  0.33806489  0.57891403  0.18329510    -0.10900
C566        C  0.32422471  0.61177756  0.19848411    -0.12400
C567        C  0.16839117  0.92354264  0.31835707    -0.10900
C568        C  0.18217410  0.89044708  0.30370028    -0.12400
C569        C  0.81538689  0.66283146  0.42243259    -0.10900
C570        C  0.80099357  0.67697040  0.38935531    -0.12400
C571        C  0.66419998  0.57698342  0.18298681    -0.10900
C572        C  0.67851010  0.60974793  0.19805348    -0.12400
C573        C  0.67975368  0.83268414  0.07813529    -0.10900
C574        C  0.69543517  0.81935777  0.11099712    -0.12400
C575        C  0.58006382  0.81472333  0.33799217    -0.10900
C576        C  0.61279570  0.79967623  0.32370882    -0.12400
C577        C  0.82392119  0.88897408  0.30194446    -0.10900
C578        C  0.83807276  0.92172554  0.31722021    -0.12400
C579        C  0.92473387  0.68280164  0.16517325    -0.10900
C580        C  0.89142221  0.69719210  0.17876167    -0.12400
C581        C  0.33440848  0.42350747  0.81614288    -0.10900
C582        C  0.31985602  0.39089876  0.80114613    -0.12400
C583        C  0.38857190  0.20349106  0.67764868    -0.10900
C584        C  0.42108905  0.18831702  0.66304094    -0.12400
C585        C  0.18057697  0.11062123  0.69835853    -0.10900
C586        C  0.16747302  0.07764771  0.68298995    -0.12400
C587        C  0.10888837  0.30268367  0.82276597    -0.10900
C588        C  0.07586507  0.31774807  0.83618885    -0.12400
C589        C  0.19627708  0.31979806  0.61062694    -0.10900
C590        C  0.18182482  0.33328494  0.57731398    -0.12400
C591        C  0.31644518  0.16559066  0.92253154    -0.10900
C592        C  0.30118037  0.17958752  0.88987462    -0.12400
C593        C  0.81427576  0.33302406  0.57702233    -0.10900
C594        C  0.79921061  0.31939278  0.60999196    -0.12400
C595        C  0.67842855  0.38828281  0.80114765    -0.10900
C596        C  0.66479047  0.42131850  0.81610636    -0.12400
C597        C  0.81950305  0.10883948  0.69656969    -0.10900
C598        C  0.83411322  0.07621627  0.68168679    -0.12400
C599        C  0.57582059  0.18510684  0.66410733    -0.10900
C600        C  0.60879083  0.19950691  0.67842513    -0.12400
C601        C  0.69606830  0.17754059  0.88980483    -0.10900
C602        C  0.68087041  0.16438402  0.92291231    -0.12400
C603        C  0.88845116  0.30104447  0.82061187    -0.10900
C604        C  0.92099587  0.31676682  0.83446329    -0.12400
C605        C  0.19659504  0.67865687  0.61005380    -0.10900
C606        C  0.18035223  0.66495437  0.57768642    -0.12400
C607        C  0.39259230  0.80164456  0.67751486    -0.10900
C608        C  0.42528420  0.81700748  0.66356858    -0.12400
C609        C  0.11240401  0.70050216  0.82111311    -0.10900
C610        C  0.07958195  0.68588249  0.83566760    -0.12400
C611        C  0.32416164  0.61109999  0.80065342    -0.10900
C612        C  0.33785466  0.57830436  0.81597739    -0.12400
C613        C  0.29957450  0.82097261  0.88945091    -0.10900
C614        C  0.31355535  0.83453116  0.92295012    -0.12400
C615        C  0.16900758  0.92274989  0.68199857    -0.10900
C616        C  0.18297540  0.88967986  0.69643259    -0.12400
C617        C  0.79945968  0.67667022  0.61045860    -0.10900
C618        C  0.81392039  0.66249331  0.57746135    -0.12400
C619        C  0.67932433  0.60937058  0.80127501    -0.10900
C620        C  0.66516093  0.57643644  0.81604937    -0.12400
C621        C  0.58001771  0.81551527  0.66141106    -0.10900
C622        C  0.61247874  0.80026998  0.67602243    -0.12400
C623        C  0.69764260  0.81975309  0.88996419    -0.10900
C624        C  0.68229502  0.83318351  0.92292342    -0.12400
C625        C  0.83608818  0.92134225  0.68274809    -0.10900
C626        C  0.82183602  0.88857939  0.69766067    -0.12400
C627        C  0.89140523  0.69679546  0.82014180    -0.10900
C628        C  0.92449446  0.68194603  0.83384077    -0.12400
loop_ 
_geom_bond_atom_site_label_1 
_geom_bond_atom_site_label_2 
_geom_bond_distance 
_geom_bond_site_symmetry_2 
_ccdc_geom_bond_type 
N1            C6   1.356       .  A
N1            C5   1.355       .  A
N1           H33   1.035       .  S
N2            C9   1.351       .  A
N2           C10   1.352   1_545  A
N3            C8   1.355       .  A
N3            C7   1.356       .  A
N3           H34   1.034       .  S
N4           C11   1.352       .  A
N4           C12   1.352   1_545  A
C5           C13   1.388       .  A
C5           C21   1.418       .  A
C6           C22   1.419       .  A
C6           C14   1.388       .  A
C7           C15   1.388       .  A
C7           C24   1.419       .  A
C8           C23   1.419       .  A
C8           C16   1.388       .  A
C9           C21   1.416       .  A
C9           C17   1.387       .  A
C10          C24   1.416       .  A
C10          C18   1.386       .  A
C11          C19   1.386       .  A
C11          C22   1.417       .  A
C12          C20   1.387       .  A
C12          C23   1.417       .  A
C13          C14   1.370       .  A
C13          H25   1.082       .  S
C14          H26   1.082       .  S
C15          C16   1.370       .  A
C15          H27   1.082       .  S
C16          H28   1.082       .  S
C17          C18   1.375   1_545  A
C17          H29   1.082       .  S
C18          H30   1.082       .  S
C19          C20   1.375   1_545  A
C19          H31   1.082       .  S
C20          H32   1.082       .  S
C21         C411   1.479       .  S
C22         C495   1.482       .  S
C23         C517   1.480       .  S
C24         C459   1.481       .  S
N35          C40   1.356       .  A
N35          C39   1.355       .  A
N35          H67   1.033       .  S
N36          C43   1.351   1_655  A
N36          C44   1.352       .  A
N37          C42   1.355       .  A
N37          C41   1.355       .  A
N37          H68   1.032       .  S
N38          C45   1.351   1_655  A
N38          C46   1.351       .  A
C39          C47   1.388       .  A
C39          C55   1.419       .  A
C40          C56   1.419       .  A
C40          C48   1.388       .  A
C41          C49   1.388       .  A
C41          C58   1.419       .  A
C42          C57   1.419       .  A
C42          C50   1.388       .  A
C43          C55   1.416       .  A
C43          C51   1.387       .  A
C44          C58   1.416       .  A
C44          C52   1.387       .  A
C45          C53   1.387       .  A
C45          C56   1.416       .  A
C46          C54   1.387       .  A
C46          C57   1.416       .  A
C47          C48   1.372       .  A
C47          H59   1.082       .  S
C48          H60   1.082       .  S
C49          C50   1.371       .  A
C49          H61   1.082       .  S
C50          H62   1.082       .  S
C51          C52   1.375   1_455  A
C51          H63   1.082       .  S
C52          H64   1.082       .  S
C53          C54   1.374   1_455  A
C53          H65   1.082       .  S
C54          H66   1.082       .  S
C55         C475   1.479       .  S
C56         C463   1.480       .  S
C57         C529   1.480       .  S
C58         C433   1.479       .  S
N69          C74   1.354       .  A
N69          C73   1.354       .  A
N69         H101   1.036       .  S
N70          C77   1.352       .  A
N70          C78   1.353   1_556  A
N71          C76   1.354       .  A
N71          C75   1.354       .  A
N71         H102   1.036       .  S
N72          C79   1.353       .  A
N72          C80   1.353   1_556  A
C73          C81   1.388       .  A
C73          C89   1.417       .  A
C74          C90   1.417       .  A
C74          C82   1.388       .  A
C75          C83   1.387       .  A
C75          C92   1.416       .  A
C76          C91   1.417       .  A
C76          C84   1.388       .  A
C77          C89   1.415       .  A
C77          C85   1.387       .  A
C78          C92   1.415       .  A
C78          C86   1.386       .  A
C79          C87   1.386       .  A
C79          C90   1.416       .  A
C80          C88   1.386       .  A
C80          C91   1.416       .  A
C81          C82   1.373       .  A
C81          H93   1.082       .  S
C82          H94   1.082       .  S
C83          C84   1.373       .  A
C83          H95   1.082       .  S
C84          H96   1.082       .  S
C85          C86   1.376   1_556  A
C85          H97   1.082       .  S
C86          H98   1.082       .  S
C87          C88   1.376   1_556  A
C87          H99   1.082       .  S
C88         H100   1.082       .  S
C89         C499   1.479       .  S
C90         C523   1.482       .  S
C91         C429   1.482       .  S
C92         C439   1.481       .  S
N103        C108   1.356       .  A
N103        C107   1.355   1_556  A
N103        H135   1.036       .  S
N104        C111   1.351   1_655  A
N104        C112   1.351       .  A
N105        C110   1.355   1_554  A
N105        C109   1.355       .  A
N105        H136   1.034       .  S
N106        C113   1.352       .  A
N106        C114   1.351   1_455  A
C107        C115   1.388   1_455  A
C107        C123   1.418       .  A
C108        C124   1.418       .  A
C108        C116   1.387   1_455  A
C109        C117   1.388   1_655  A
C109        C126   1.418       .  A
C110        C125   1.418       .  A
C110        C118   1.388   1_655  A
C111        C123   1.414       .  A
C111        C119   1.387       .  A
C112        C126   1.415       .  A
C112        C120   1.387   1_655  A
C113        C121   1.386       .  A
C113        C124   1.415       .  A
C114        C122   1.387   1_655  A
C114        C125   1.415       .  A
C115        C116   1.370   1_554  A
C115        H127   1.082       .  S
C116        H128   1.082       .  S
C117        C118   1.370   1_554  A
C117        H129   1.082       .  S
C118        H130   1.082       .  S
C119        C120   1.374       .  A
C119        H131   1.082       .  S
C120        H132   1.082       .  S
C121        C122   1.374       .  A
C121        H133   1.082       .  S
C122        H134   1.082       .  S
C123        C445   1.478       .  S
C124        C511   1.481       .  S
C125        C481   1.478       .  S
C126        C399   1.478       .  S
N137        C142   1.355   1_554  A
N137        C141   1.356   1_564  A
N137        H169   1.033       .  S
N138        C145   1.351       .  A
N138        C146   1.351       .  A
N139        C144   1.356   1_556  A
N139        C143   1.356   1_566  A
N139        H170   1.033       .  S
N140        C147   1.352   1_556  A
N140        C148   1.352       .  A
C141        C149   1.387       .  A
C141        C157   1.418       .  A
C142        C158   1.419   1_556  A
C142        C150   1.388       .  A
C143        C151   1.388       .  A
C143        C160   1.419   1_554  A
C144        C159   1.419   1_554  A
C144        C152   1.388       .  A
C145        C157   1.415       .  A
C145        C153   1.387       .  A
C146        C160   1.415       .  A
C146        C154   1.387       .  A
C147        C155   1.387   1_554  A
C147        C158   1.416       .  A
C148        C156   1.387       .  A
C148        C159   1.416       .  A
C149        C150   1.371   1_545  A
C149        H161   1.082       .  S
C150        H162   1.082       .  S
C151        C152   1.371   1_545  A
C151        H163   1.082       .  S
C152        H164   1.082       .  S
C153        C154   1.373       .  A
C153        H165   1.082   1_556  S
C154        H166   1.082       .  S
C155        C156   1.375       .  A
C155        H167   1.082   1_556  S
C156        H168   1.082       .  S
C157        C405   1.478       .  S
C158        C451   1.479       .  S
C159        C469   1.480       .  S
C160        C423   1.478       .  S
Zn171       O175   1.975       .  S
Zn171       O176   2.034       .  S
Zn171       O180   2.029       .  S
Zn171       O187   2.033       .  S
Zn172       O175   1.960       .  S
Zn172       O177   2.023       .  S
Zn172       O179   2.008       .  S
Zn172       O183   2.018       .  S
Zn173       O175   1.960       .  S
Zn173       O178   2.003       .  S
Zn173       O181   2.018       .  S
Zn173       O184   2.016       .  S
Zn174       O175   1.961       .  S
Zn174       O182   2.014       .  S
Zn174       O185   2.023       .  S
Zn174       O186   2.004       .  S
O176        C188   1.274       .  A
O177        C189   1.272       .  A
O178        C190   1.270       .  A
O179        C188   1.271       .  A
O180        C190   1.273       .  A
O181        C189   1.272       .  A
O182        C191   1.272       .  A
O183        C192   1.272       .  A
O184        C191   1.271       .  A
O185        C192   1.272       .  A
O186        C193   1.270       .  A
O187        C193   1.274       .  A
C188        C619   1.437       .  S
C189        C627   1.437       .  S
C190        C617   1.434       .  S
C191        C626   1.434       .  S
C192        C623   1.437       .  S
C193        C622   1.435       .  S
Zn194       O198   1.959       .  S
Zn194       O199   2.006       .  S
Zn194       O203   2.017       .  S
Zn194       O210   2.014       .  S
Zn195       O198   1.972       .  S
Zn195       O200   2.026       .  S
Zn195       O202   2.031       .  S
Zn195       O206   2.032       .  S
Zn196       O198   1.961       .  S
Zn196       O201   2.019       .  S
Zn196       O204   2.002       .  S
Zn196       O207   2.015       .  S
Zn197       O198   1.959       .  S
Zn197       O205   2.017       .  S
Zn197       O208   2.009       .  S
Zn197       O209   2.013       .  S
O199        C211   1.270       .  A
O200        C212   1.273       .  A
O201        C213   1.272       .  A
O202        C211   1.274       .  A
O203        C213   1.272       .  A
O204        C212   1.270       .  A
O205        C214   1.271       .  A
O206        C215   1.273       .  A
O207        C214   1.272       .  A
O208        C215   1.271       .  A
O209        C216   1.272       .  A
O210        C216   1.271       .  A
C211        C613   1.436       .  S
C212        C616   1.433       .  S
C213        C607   1.435       .  S
C214        C605   1.434       .  S
C215        C609   1.437       .  S
C216        C611   1.433       .  S
Zn217       O221   1.960       .  S
Zn217       O222   2.024       .  S
Zn217       O226   2.018       .  S
Zn217       O233   2.004       .  S
Zn218       O221   1.958       .  S
Zn218       O223   2.014       .  S
Zn218       O225   2.010       .  S
Zn218       O229   2.001       .  S
Zn219       O221   1.959       .  S
Zn219       O224   2.013       .  S
Zn219       O227   2.014       .  S
Zn219       O230   2.000       .  S
Zn220       O221   1.973       .  S
Zn220       O228   2.034       .  S
Zn220       O231   2.033       .  S
Zn220       O232   2.031       .  S
O222        C234   1.272       .  A
O223        C235   1.271       .  A
O224        C236   1.271       .  A
O225        C234   1.271       .  A
O226        C236   1.272       .  A
O227        C235   1.271       .  A
O228        C237   1.274       .  A
O229        C238   1.270       .  A
O230        C237   1.270       .  A
O231        C238   1.274       .  A
O232        C239   1.274       .  A
O233        C239   1.270       .  A
C234        C601   1.435       .  S
C235        C603   1.434       .  S
C236        C597   1.434       .  S
C237        C594   1.435       .  S
C238        C595   1.435       .  S
C239        C600   1.435       .  S
Zn240       O244   1.972       .  S
Zn240       O245   2.031       .  S
Zn240       O249   2.035       .  S
Zn240       O256   2.033       .  S
Zn241       O244   1.959       .  S
Zn241       O246   2.013       .  S
Zn241       O248   2.005       .  S
Zn241       O252   2.013       .  S
Zn242       O244   1.957       .  S
Zn242       O247   2.001       .  S
Zn242       O250   2.007       .  S
Zn242       O253   2.011       .  S
Zn243       O244   1.958       .  S
Zn243       O251   2.011       .  S
Zn243       O254   2.018       .  S
Zn243       O255   2.002       .  S
O245        C257   1.274       .  A
O246        C258   1.271       .  A
O247        C259   1.269       .  A
O248        C257   1.270       .  A
O249        C259   1.274       .  A
O250        C258   1.270       .  A
O251        C260   1.271       .  A
O252        C261   1.271       .  A
O253        C260   1.271       .  A
O254        C261   1.271       .  A
O255        C262   1.270       .  A
O256        C262   1.274       .  A
C257        C589   1.435       .  S
C258        C585   1.431       .  S
C259        C583   1.436       .  S
C260        C592   1.432       .  S
C261        C587   1.434       .  S
C262        C582   1.435       .  S
Zn263       O267   1.976       .  S
Zn263       O268   2.034       .  S
Zn263       O272   2.040       .  S
Zn263       O279   2.034       .  S
Zn264       O267   1.962       .  S
Zn264       O269   2.014       .  S
Zn264       O271   2.004       .  S
Zn264       O275   2.023       .  S
Zn265       O267   1.963       .  S
Zn265       O270   2.008       .  S
Zn265       O273   2.026       .  S
Zn265       O276   2.018       .  S
Zn266       O267   1.963       .  S
Zn266       O274   2.023       .  S
Zn266       O277   2.025       .  S
Zn266       O278   2.007       .  S
O268        C280   1.274       .  A
O269        C281   1.271       .  A
O270        C282   1.270       .  A
O271        C280   1.270       .  A
O272        C282   1.275       .  A
O273        C281   1.273       .  A
O274        C283   1.273       .  A
O275        C284   1.272       .  A
O276        C283   1.272       .  A
O277        C284   1.273       .  A
O278        C285   1.271       .  A
O279        C285   1.274       .  A
C280        C570   1.436       .  S
C281        C580   1.436       .  S
C282        C572   1.438       .  S
C283        C574   1.437       .  S
C284        C577   1.439       .  S
C285        C576   1.436       .  S
Zn286       O290   1.960       .  S
Zn286       O291   2.021       .  S
Zn286       O295   2.020       .  S
Zn286       O302   2.007       .  S
Zn287       O290   1.961       .  S
Zn287       O292   2.019       .  S
Zn287       O294   2.017       .  S
Zn287       O298   2.008       .  S
Zn288       O290   1.961       .  S
Zn288       O293   2.021       .  S
Zn288       O296   2.018       .  S
Zn288       O299   2.003       .  S
Zn289       O290   1.973       .  S
Zn289       O297   2.030       .  S
Zn289       O300   2.032       .  S
Zn289       O301   2.029       .  S
O291        C303   1.272       .  A
O292        C304   1.272       .  A
O293        C305   1.272       .  A
O294        C303   1.272       .  A
O295        C305   1.272       .  A
O296        C304   1.272       .  A
O297        C306   1.274       .  A
O298        C307   1.270       .  A
O299        C306   1.270       .  A
O300        C307   1.274       .  A
O301        C308   1.273       .  A
O302        C308   1.271       .  A
C303        C566   1.436       .  S
C304        C557   1.435       .  S
C305        C560   1.437       .  S
C306        C568   1.434       .  S
C307        C563   1.436       .  S
C308        C561   1.435       .  S
Zn309       O313   1.960       .  S
Zn309       O314   2.015       .  S
Zn309       O318   2.019       .  S
Zn309       O325   2.006       .  S
Zn310       O313   1.963       .  S
Zn310       O315   2.022       .  S
Zn310       O317   2.029       .  S
Zn310       O321   2.009       .  S
Zn311       O313   1.961       .  S
Zn311       O316   2.017       .  S
Zn311       O319   2.021       .  S
Zn311       O322   2.002       .  S
Zn312       O313   1.975       .  S
Zn312       O320   2.029       .  S
Zn312       O323   2.028       .  S
Zn312       O324   2.034       .  S
O314        C326   1.272       .  A
O315        C327   1.273       .  A
O316        C328   1.272       .  A
O317        C326   1.273       .  A
O318        C328   1.272       .  A
O319        C327   1.272       .  A
O320        C329   1.273       .  A
O321        C330   1.271       .  A
O322        C329   1.270       .  A
O323        C330   1.273       .  A
O324        C331   1.274       .  A
O325        C331   1.270       .  A
C326        C550   1.438       .  S
C327        C551   1.437       .  S
C328        C555   1.435       .  S
C329        C546   1.434       .  S
C330        C553   1.435       .  S
C331        C547   1.437       .  S
N332        C337   1.354   1_565  A
N332        C336   1.354   1_465  A
N332        H364   1.035       .  S
N333        C340   1.352       .  A
N333        C341   1.352       .  A
N334        C339   1.353   1_565  A
N334        C338   1.354   1_465  A
N334        H365   1.036       .  S
N335        C342   1.351       .  A
N335        C343   1.351       .  A
C336        C344   1.387       .  A
C336        C352   1.416   1_545  A
C337        C353   1.416   1_545  A
C337        C345   1.388       .  A
C338        C346   1.387       .  A
C338        C355   1.416   1_545  A
C339        C354   1.416   1_545  A
C339        C347   1.388       .  A
C340        C352   1.415       .  A
C340        C348   1.386       .  A
C341        C355   1.415       .  A
C341        C349   1.386       .  A
C342        C350   1.387       .  A
C342        C353   1.413       .  A
C343        C351   1.387       .  A
C343        C354   1.413       .  A
C344        C345   1.373   1_655  A
C344        H356   1.082       .  S
C345        H357   1.082       .  S
C346        C347   1.373   1_655  A
C346        H358   1.082       .  S
C347        H359   1.082       .  S
C348        C349   1.375       .  A
C348        H360   1.082       .  S
C349        H361   1.082       .  S
C350        C351   1.374       .  A
C350        H362   1.082       .  S
C351        H363   1.082       .  S
C352        C417   1.480       .  S
C353        C368   1.477   1_565  S
C354        C487   1.476   1_565  S
C355        C505   1.478       .  S
C366        N367   1.357       .  A
C366        N371   1.356       .  A
C366        C544   1.434       .  S
N367        C368   1.359       .  A
C368        N369   1.359   1_545  A
N369        C370   1.357       .  A
C370        N371   1.356   1_565  A
C370        C567   1.435       .  S
Zn372       O376   1.961       .  S
Zn372       O377   2.020       .  S
Zn372       O381   2.018       .  S
Zn372       O388   2.009       .  S
Zn373       O376   1.961       .  S
Zn373       O378   2.018       .  S
Zn373       O380   2.013       .  S
Zn373       O384   2.005       .  S
Zn374       O376   1.959       .  S
Zn374       O379   2.013       .  S
Zn374       O382   2.009       .  S
Zn374       O385   2.005       .  S
Zn375       O376   1.972       .  S
Zn375       O383   2.033       .  S
Zn375       O386   2.028       .  S
Zn375       O387   2.032       .  S
O377        C389   1.272       .  A
O378        C390   1.272       .  A
O379        C391   1.271       .  A
O380        C389   1.271       .  A
O381        C391   1.272       .  A
O382        C390   1.271       .  A
O383        C392   1.274       .  A
O384        C393   1.270       .  A
O385        C392   1.270       .  A
O386        C393   1.273       .  A
O387        C394   1.274       .  A
O388        C394   1.271       .  A
C389        C542   1.434       .  S
C390        C543   1.433       .  S
C391        C539   1.434       .  S
C392        C537   1.436       .  S
C393        C534   1.435       .  S
C394        C535   1.436       .  S
C395        N396   1.356       .  A
C395        N400   1.358       .  A
C395        C556   1.436       .  S
N396        C397   1.356   1_655  A
C397        N398   1.357       .  A
C397        C541   1.434       .  S
N398        C399   1.359   1_455  A
C399        N400   1.359       .  A
C401        N402   1.355   1_554  A
C401        N406   1.358       .  A
C401        C540   1.434       .  S
N402        C403   1.355       .  A
C403        N404   1.357       .  A
C403        C591   1.432       .  S
N404        C405   1.359       .  A
C405        N406   1.359   1_556  A
C407        N408   1.356       .  A
C407        N412   1.358       .  A
C407        C538   1.437       .  S
N408        C409   1.356       .  A
C409        N410   1.356       .  A
C409        C554   1.435       .  S
N410        C411   1.358       .  A
C411        N412   1.360       .  A
C413        N414   1.356   1_545  A
C413        N418   1.358       .  A
C413        C552   1.437       .  S
N414        C415   1.356       .  A
C415        N416   1.359       .  A
C415        C578   1.439       .  S
N416        C417   1.360       .  A
C417        N418   1.360   1_565  A
C419        N420   1.357   1_556  A
C419        N424   1.356       .  A
C419        C602   1.436       .  S
N420        C421   1.357       .  A
C421        N422   1.358       .  A
C421        C549   1.438       .  S
N422        C423   1.360   1_554  A
C423        N424   1.358       .  A
C425        N426   1.356       .  A
C425        N430   1.358       .  A
C425        C548   1.437       .  S
N426        C427   1.356       .  A
C427        N428   1.359       .  A
C427        C571   1.438       .  S
N428        C429   1.361       .  A
C429        N430   1.360       .  A
C431        N432   1.358       .  A
C431        N436   1.355       .  A
C431        C593   1.435       .  S
N432        C433   1.359       .  A
C433        N434   1.360       .  A
N434        C435   1.358       .  A
C435        N436   1.356       .  A
C435        C545   1.435       .  S
C437        N438   1.358       .  A
C437        N442   1.356       .  A
C437        C536   1.437       .  S
N438        C439   1.360       .  A
C439        N440   1.360       .  A
N440        C441   1.358       .  A
C441        N442   1.356       .  A
C441        C565   1.436       .  S
C443        N444   1.357       .  A
C443        N448   1.357   1_655  A
C443        C579   1.436       .  S
N444        C445   1.359   1_655  A
C445        N446   1.359       .  A
N446        C447   1.358       .  A
C447        N448   1.357       .  A
C447        C564   1.437       .  S
C449        N450   1.357       .  A
C449        N454   1.357       .  A
C449        C562   1.436       .  S
N450        C451   1.359       .  A
C451        N452   1.359   1_554  A
N452        C453   1.358       .  A
C453        N454   1.357   1_556  A
C453        C614   1.436       .  S
C455        N456   1.356       .  A
C455        N460   1.358       .  A
C455        C559   1.437       .  S
N456        C457   1.356       .  A
C457        N458   1.358       .  A
C457        C575   1.437       .  S
N458        C459   1.360       .  A
C459        N460   1.360       .  A
C461        N462   1.358       .  A
C461        N466   1.355       .  A
C461        C606   1.435       .  S
N462        C463   1.360       .  A
C463        N464   1.360       .  A
N464        C465   1.358       .  A
C465        N466   1.355       .  A
C465        C558   1.436       .  S
C467        N468   1.357       .  A
C467        N472   1.356   1_556  A
C467        C624   1.437       .  S
N468        C469   1.359       .  A
C469        N470   1.360   1_556  A
N470        C471   1.358       .  A
C471        N472   1.357       .  A
C471        C573   1.438       .  S
C473        N474   1.358       .  A
C473        N478   1.356       .  A
C473        C590   1.436       .  S
N474        C475   1.359       .  A
C475        N476   1.359       .  A
N476        C477   1.357       .  A
C477        N478   1.356       .  A
C477        C533   1.435       .  S
C479        N480   1.358       .  A
C479        N484   1.355       .  A
C479        C604   1.434       .  S
N480        C481   1.359       .  A
C481        N482   1.359   1_655  A
N482        C483   1.357       .  A
C483        N484   1.355   1_455  A
C483        C588   1.434       .  S
C485        N486   1.356       .  A
C485        N490   1.355       .  A
C485        C586   1.432       .  S
N486        C487   1.358       .  A
C487        N488   1.358   1_545  A
N488        C489   1.357       .  A
C489        N490   1.355   1_565  A
C489        C615   1.433       .  S
C491        N492   1.355       .  A
C491        N496   1.359       .  A
C491        C584   1.436       .  S
N492        C493   1.355       .  A
C493        N494   1.358       .  A
C493        C599   1.435       .  S
N494        C495   1.360       .  A
C495        N496   1.360       .  A
C497        N498   1.358       .  A
C497        N502   1.355       .  A
C497        C581   1.435       .  S
N498        C499   1.360       .  A
C499        N500   1.359       .  A
N500        C501   1.358       .  A
C501        N502   1.355       .  A
C501        C612   1.433       .  S
C503        N504   1.357       .  A
C503        N508   1.355   1_545  A
C503        C598   1.434       .  S
N504        C505   1.359   1_545  A
C505        N506   1.359       .  A
N506        C507   1.358       .  A
C507        N508   1.355       .  A
C507        C625   1.434       .  S
C509        N510   1.358       .  A
C509        N514   1.356   1_655  A
C509        C628   1.437       .  S
N510        C511   1.360   1_655  A
C511        N512   1.360       .  A
N512        C513   1.358       .  A
C513        N514   1.356       .  A
C513        C610   1.437       .  S
C515        N516   1.358       .  A
C515        N520   1.355       .  A
C515        C608   1.435       .  S
N516        C517   1.360       .  A
C517        N518   1.360       .  A
N518        C519   1.358       .  A
C519        N520   1.355       .  A
C519        C621   1.435       .  S
C521        N522   1.358       .  A
C521        N526   1.356       .  A
C521        C596   1.436       .  S
N522        C523   1.360       .  A
C523        N524   1.360       .  A
N524        C525   1.359       .  A
C525        N526   1.356       .  A
C525        C620   1.437       .  S
C527        N528   1.357       .  A
C527        N532   1.356       .  A
C527        C618   1.435       .  S
N528        C529   1.359       .  A
C529        N530   1.360       .  A
N530        C531   1.358       .  A
C531        N532   1.356       .  A
C531        C569   1.436       .  S
C533        C534   1.206       .  T
C535        C536   1.207       .  T
C537        C538   1.207       .  T
C539        C540   1.205       .  T
C541        C542   1.205       .  T
C543        C544   1.205       .  T
C545        C546   1.205       .  T
C547        C548   1.207       .  T
C549        C550   1.207       .  T
C551        C552   1.207       .  T
C553        C554   1.206       .  T
C555        C556   1.206       .  T
C557        C558   1.206       .  T
C559        C560   1.207       .  T
C561        C562   1.206       .  T
C563        C564   1.207       .  T
C565        C566   1.206       .  T
C567        C568   1.205       .  T
C569        C570   1.206       .  T
C571        C572   1.208       .  T
C573        C574   1.207       .  T
C575        C576   1.206       .  T
C577        C578   1.208       .  T
C579        C580   1.206       .  T
C581        C582   1.206       .  T
C583        C584   1.206       .  T
C585        C586   1.204       .  T
C587        C588   1.205       .  T
C589        C590   1.206       .  T
C591        C592   1.204       .  T
C593        C594   1.206       .  T
C595        C596   1.206       .  T
C597        C598   1.205       .  T
C599        C600   1.206       .  T
C601        C602   1.206       .  T
C603        C604   1.205       .  T
C605        C606   1.205       .  T
C607        C608   1.206       .  T
C609        C610   1.207       .  T
C611        C612   1.205       .  T
C613        C614   1.206       .  T
C615        C616   1.204       .  T
C617        C618   1.205       .  T
C619        C620   1.207       .  T
C621        C622   1.206       .  T
C623        C624   1.207       .  T
C625        C626   1.205       .  T
C627        C628   1.207       .  T
