geometry optimzed in LAMMPS
_audit_creation_date              2020-11-30 
_audit_creation_method            'lammps2cif' 
_symmetry_space_group_name_H-M    'P1' 
_symmetry_Int_Tables_number       1 
_symmetry_cell_setting            triclinic 
loop_ 
_symmetry_equiv_pos_as_xyz 
  x,y,z 
_cell_length_a                    33.59786914 
_cell_length_b                    33.60338022587855 
_cell_length_c                    33.48365232608778 
_cell_angle_alpha                 89.45189770977464 
_cell_angle_beta                  90.09075325823312 
_cell_angle_gamma                 89.80832445291279 
loop_ 
_atom_site_label 
_atom_site_type_symbol 
_atom_site_fract_x 
_atom_site_fract_y 
_atom_site_fract_z 
_atom_site_charge 
Zn1        Zn  0.78595779  0.79793488  0.78012771     1.49700
Zn2        Zn  0.70994117  0.74708849  0.78422078     1.49400
Zn3        Zn  0.73704340  0.79401338  0.70241974     1.49100
Zn4        Zn  0.78900905  0.71767728  0.73429737     1.49500
O5          O  0.75482631  0.76328256  0.74949970    -1.85000
O6          O  0.76581210  0.80434785  0.83297154    -0.75600
O7          O  0.65863078  0.75979180  0.75580905    -0.75400
O8          O  0.75911059  0.85259785  0.70041695    -0.75000
O9          O  0.71069403  0.77040119  0.84247224    -0.75600
O10         O  0.78840671  0.85151156  0.75964557    -0.75200
O11         O  0.67752642  0.79165058  0.70018854    -0.75800
O12         O  0.78845815  0.71244391  0.67363586    -0.75200
O13         O  0.70613693  0.68758589  0.78133502    -0.76000
O14         O  0.74799713  0.76136908  0.65319120    -0.75400
O15         O  0.75957673  0.66640506  0.74803235    -0.75800
O16         O  0.84660342  0.72108593  0.75926557    -0.75700
O17         O  0.84015125  0.78023867  0.78695992    -0.75500
C18         C  0.73736943  0.79421782  0.85527361     0.76300
C19         C  0.65120071  0.77438895  0.72138152     0.76800
C20         C  0.77821610  0.87006267  0.72836438     0.75700
C21         C  0.76700010  0.72920555  0.64676792     0.76100
C22         C  0.72528324  0.66033754  0.76323371     0.77200
C23         C  0.86109733  0.75001131  0.77933379     0.76300
C24         C  0.87545378  0.01116835  0.74022754    -0.03400
Zn25       Zn  0.70616281  0.20489892  0.73010212     1.49700
Zn26       Zn  0.78631204  0.24011158  0.77584630     1.49400
Zn27       Zn  0.75113448  0.28503950  0.69463000     1.49100
Zn28       Zn  0.70737536  0.28452448  0.77466788     1.49500
O29         O  0.73873801  0.25255920  0.74263731    -1.85000
O30         O  0.74053534  0.15690659  0.74355427    -0.75600
O31         O  0.83484874  0.25437858  0.74343539    -0.75400
O32         O  0.73847908  0.25112730  0.64582319    -0.75000
O33         O  0.79206347  0.18043458  0.77831316    -0.75600
O34         O  0.70578964  0.19815496  0.66979872    -0.75200
O35         O  0.81067550  0.28530916  0.68913523    -0.75800
O36         O  0.69681696  0.33569315  0.75309603    -0.75200
O37         O  0.78798447  0.26652410  0.83257911    -0.76000
O38         O  0.72704655  0.34397912  0.69544525    -0.75400
O39         O  0.73015086  0.29643686  0.82513186    -0.75800
O40         O  0.65760282  0.26196152  0.78686396    -0.75700
O41         O  0.64879431  0.20394602  0.75845553    -0.75500
C42         C  0.77412783  0.15208107  0.76077903     0.76300
C43         C  0.83932593  0.26967113  0.70878156     0.76800
C44         C  0.72338236  0.21657623  0.64136593     0.75700
C45         C  0.70547362  0.35765052  0.72382074     0.76100
C46         C  0.76073272  0.28951407  0.84576128     0.77200
C47         C  0.63629916  0.23187731  0.78119471     0.76300
C48         C  0.63241094  0.51656375  0.73658255    -0.03400
C49         C  0.74847955  0.63126982  0.50404442    -0.03400
Zn50       Zn  0.78030549  0.71949362  0.28309791     1.49700
Zn51       Zn  0.69939821  0.75806907  0.28469454     1.49400
Zn52       Zn  0.77749014  0.79691267  0.24339997     1.49100
Zn53       Zn  0.73669471  0.71745144  0.20590078     1.49500
O54         O  0.74608176  0.74992419  0.25214220    -1.85000
O55         O  0.77558963  0.73275156  0.33924294    -0.75600
O56         O  0.69011840  0.81733462  0.28459093    -0.75400
O57         O  0.83464858  0.79124621  0.26797880    -0.75000
O58         O  0.70964358  0.73350401  0.34180200    -0.75600
O59         O  0.83684828  0.72558256  0.26899291    -0.75200
O60         O  0.74595267  0.84504602  0.26163202    -0.75800
O61         O  0.75395052  0.74919780  0.15696798    -0.75200
O62         O  0.64969991  0.73951818  0.25377261    -0.76000
O63         O  0.77641325  0.80528613  0.18428772    -0.75400
O64         O  0.67718444  0.71724430  0.19760973    -0.75800
O65         O  0.76246568  0.66069305  0.21350551    -0.75700
O66         O  0.76742384  0.66349781  0.27927482    -0.75500
C67         C  0.74365653  0.72740310  0.35849336     0.76300
C68         C  0.70977361  0.84775006  0.27301903     0.76800
C69         C  0.85393422  0.75869835  0.27391784     0.75700
C70         C  0.76447461  0.78564890  0.15415940     0.76100
C71         C  0.64675306  0.72845743  0.21738082     0.77200
C72         C  0.77077847  0.64415964  0.24725875     0.76300
C73         C  0.73944019  0.87913205  0.00828181    -0.03400
C74         C  0.49880589  0.75284050  0.12469889    -0.03400
C75         C  0.37256463  0.00175954  0.74652467    -0.03400
C76         C  0.75123468  0.37039850  0.99977884    -0.03400
C77         C  0.25315390  0.62414956  0.00579726    -0.03400
C78         C  0.12339389  0.50830745  0.75885563    -0.03400
C79         C  0.75513102  0.11784258  0.50071068    -0.03400
C80         C  0.99685126  0.74694007  0.37371274    -0.03400
Zn81       Zn  0.28087360  0.79736991  0.26485382     1.49700
Zn82       Zn  0.20263297  0.76251310  0.21987441     1.49400
Zn83       Zn  0.27907316  0.71948406  0.22469077     1.49100
Zn84       Zn  0.23475249  0.71760472  0.30058929     1.49500
O85         O  0.24678603  0.75210282  0.25501442    -1.85000
O86         O  0.25106977  0.84734384  0.24516098    -0.75600
O87         O  0.21124799  0.73407882  0.16520224    -0.75400
O88         O  0.31629755  0.74858881  0.19100187    -0.75000
O89         O  0.19718341  0.82202780  0.21579701    -0.75600
O90         O  0.33768169  0.78875770  0.23808323    -0.75200
O91         O  0.24844137  0.68508081  0.18925552    -0.75800
O92         O  0.26036541  0.66035841  0.29110502    -0.75200
O93         O  0.15210919  0.74713913  0.24934834    -0.76000
O94         O  0.31140159  0.68620503  0.25957161    -0.75400
O95         O  0.17392081  0.71567366  0.30433243    -0.75800
O96         O  0.25202815  0.74868231  0.35092149    -0.75700
O97         O  0.28043462  0.80368450  0.32548046    -0.75500
C98         C  0.21683208  0.85167298  0.22882181     0.76300
C99         C  0.22963551  0.70096421  0.16041627     0.76800
C100        C  0.34419395  0.76848691  0.20635707     0.75700
C101        C  0.29349001  0.65584957  0.27266557     0.76100
C102        C  0.14566928  0.73053861  0.28318570     0.77200
C103        C  0.26677591  0.78359978  0.35508970     0.76300
C104        C  0.25637673  0.87279028  0.50544809    -0.03400
C105        C  0.86887423  0.50102284  0.25656364    -0.03400
Zn106      Zn  0.79407259  0.26952692  0.21266729     1.49700
Zn107      Zn  0.75319728  0.27135799  0.29612669     1.49400
Zn108      Zn  0.71005473  0.23146347  0.21926315     1.49100
Zn109      Zn  0.79080062  0.18927030  0.25751092     1.49500
O110        O  0.76133565  0.23946185  0.24733545    -1.85000
O111        O  0.80255313  0.32285795  0.23086161    -0.75600
O112        O  0.69427929  0.27188237  0.30811428    -0.75400
O113        O  0.70829378  0.25729041  0.16241661    -0.75000
O114        O  0.77474023  0.33013348  0.29004185    -0.75600
O115        O  0.77052695  0.27882933  0.16125857    -0.75200
O116        O  0.66387994  0.25125928  0.25294907    -0.75800
O117        O  0.75501292  0.14260377  0.24121639    -0.75200
O118        O  0.77288024  0.23945004  0.34473756    -0.76000
O119        O  0.69936815  0.17247952  0.21946433    -0.75400
O120        O  0.79113337  0.18174962  0.31764388    -0.75800
O121        O  0.84893511  0.18809374  0.23144805    -0.75700
O122        O  0.84570863  0.24719172  0.20197948    -0.75500
C123        C  0.79379382  0.34456664  0.26006951     0.76300
C124        C  0.66282031  0.26266814  0.28911204     0.76800
C125        C  0.73688172  0.27545608  0.14500878     0.75700
C126        C  0.71858992  0.14135973  0.23008443     0.76100
C127        C  0.78208685  0.20256448  0.34807037     0.77200
C128        C  0.86448104  0.21544171  0.20946210     0.76300
C129        C  0.62175220  0.99717852  0.24773890    -0.03400
C130        C  0.48490516  0.25107334  0.86811270    -0.03400
Zn131      Zn  0.24634547  0.27821155  0.78805176     1.49700
Zn132      Zn  0.20850593  0.19656714  0.75033664     1.49400
Zn133      Zn  0.20024992  0.27910125  0.70872909     1.49100
Zn134      Zn  0.28557395  0.23939259  0.70770123     1.49500
O135        O  0.23608804  0.24748453  0.73931411    -1.85000
O136        O  0.22933820  0.24543871  0.83700925    -0.75600
O137        O  0.15163363  0.19319912  0.72435363    -0.75400
O138        O  0.18681109  0.33049987  0.73093630    -0.75000
O139        O  0.20771143  0.18890699  0.81030268    -0.75600
O140        O  0.22273336  0.33622685  0.78604853    -0.75200
O141        O  0.15077269  0.25334450  0.69679512    -0.75800
O142        O  0.28129404  0.26444586  0.64976176    -0.75200
O143        O  0.24390934  0.15023011  0.73364674    -0.76000
O144        O  0.22134191  0.29057469  0.65697086    -0.75400
O145        O  0.29708314  0.17989328  0.70724822    -0.75800
O146        O  0.33404344  0.25866943  0.73954040    -0.75700
O147        O  0.30554163  0.27922347  0.79570522    -0.75500
C148        C  0.21803018  0.20926343  0.84059579     0.76300
C149        C  0.13452639  0.22014959  0.70312724     0.76800
C150        C  0.19825853  0.35069664  0.76034428     0.75700
C151        C  0.25158188  0.28420732  0.63573776     0.76100
C152        C  0.27930642  0.14869404  0.71992053     0.77200
C153        C  0.33645749  0.26981572  0.77586367     0.76300
C154        C  0.98460474  0.24169481  0.61847020    -0.03400
C155        C  0.01625565  0.23572036  0.12510148    -0.03400
Zn156      Zn  0.04566694  0.96263303  0.00729833     1.49700
Zn157      Zn  0.96219063  0.95724365  0.96805018     1.49400
Zn158      Zn  0.96703005  0.00422983  0.04715627     1.49100
Zn159      Zn  0.00438344  0.04040055  0.96490969     1.49500
O160        O  0.99544371  0.99171792  0.99739180    -1.85000
O161        O  0.04502710  0.90370392  0.98622787    -0.75600
O162        O  0.91002747  0.95028043  0.99152308    -0.75400
O163        O  0.00018073  0.98720834  0.09529166    -0.75000
O164        O  0.98292298  0.90346614  0.96413658    -0.75600
O165        O  0.05574458  0.96553895  0.06634854    -0.75200
O166        O  0.90853307  0.98249495  0.04897923    -0.75800
O167        O  0.98781467  0.09029222  0.99533076    -0.75200
O168        O  0.95401705  0.97577893  0.91359635    -0.76000
O169        O  0.97128313  0.06322883  0.05393344    -0.75400
O170        O  0.98047956  0.03576172  0.90707053    -0.75800
O171        O  0.06345106  0.05060865  0.96496165    -0.75700
O172        O  0.09293255  0.99565046  0.98822574    -0.75500
C173        C  0.01539326  0.88550735  0.97066193     0.76300
C174        C  0.89200643  0.96023288  0.02297057     0.76800
C175        C  0.03683510  0.97717746  0.09709429     0.75700
C176        C  0.98148352  0.09320858  0.03279424     0.76100
C177        C  0.96135527  0.00625962  0.89245780     0.77200
C178        C  0.09451485  0.03191339  0.97653370     0.76300
Zn179      Zn  0.25444127  0.28107242  0.19320052     1.49700
Zn180      Zn  0.29649610  0.19920440  0.22834989     1.49400
Zn181      Zn  0.30321561  0.28107043  0.27097696     1.49100
Zn182      Zn  0.22039740  0.23885388  0.27514332     1.49500
O183        O  0.26786273  0.24906683  0.24114480    -1.85000
O184        O  0.26874926  0.24954023  0.14349741    -0.75600
O185        O  0.35349031  0.19544057  0.25644729    -0.75400
O186        O  0.31975537  0.33022093  0.24510925    -0.75000
O187        O  0.29423882  0.19263982  0.16771330    -0.75600
O188        O  0.27846291  0.33952597  0.19424590    -0.75200
O189        O  0.35079360  0.25361475  0.28687972    -0.75800
O190        O  0.22389432  0.26614373  0.33130715    -0.75200
O191        O  0.26102790  0.15257450  0.24389211    -0.76000
O192        O  0.28098931  0.29710235  0.32138268    -0.75400
O193        O  0.21040036  0.17907669  0.27766129    -0.75800
O194        O  0.17063289  0.25517564  0.24463725    -0.75700
O195        O  0.19458021  0.27893855  0.18707135    -0.75500
C196        C  0.28003427  0.21354977  0.13889767     0.76300
C197        C  0.36832635  0.22114225  0.28039508     0.76800
C198        C  0.30630777  0.35200632  0.21722367     0.75700
C199        C  0.25145664  0.28947093  0.34334415     0.76100
C200        C  0.22728691  0.14948729  0.26101459     0.77200
C201        C  0.16580924  0.26626634  0.20843236     0.76300
C202        C  0.13172442  0.00477696  0.24154958    -0.03400
Zn203      Zn  0.04214524  0.96758980  0.46774958     1.49700
Zn204      Zn  0.99356720  0.04482831  0.46132747     1.49400
Zn205      Zn  0.96142911  0.96616999  0.51165858     1.49100
Zn206      Zn  0.03965918  0.01604579  0.54337175     1.49500
O207        O  0.00788399  0.99949017  0.49692842    -1.85000
O208        O  0.05432909  0.98902163  0.41703358    -0.75600
O209        O  0.93364156  0.04931333  0.46134558    -0.75400
O210        O  0.96436274  0.90767811  0.48787419    -0.75000
O211        O  0.01996805  0.04343624  0.40401411    -0.75600
O212        O  0.02182660  0.91614179  0.45739041    -0.75200
O213        O  0.91109903  0.99656749  0.49540078    -0.75800
O214        O  0.00674524  0.00573588  0.59231079    -0.75200
O215        O  0.00516337  0.09559822  0.49060350    -0.76000
O216        O  0.95557957  0.96849266  0.57230421    -0.75400
O217        O  0.03791039  0.07516944  0.54525959    -0.75800
O218        O  0.09732289  0.99112526  0.54795363    -0.75700
O219        O  0.09189576  0.95675309  0.49247811    -0.75500
C220        C  0.04518810  0.01690518  0.39344528     0.76300
C221        C  0.90548400  0.03045570  0.47863345     0.76800
C222        C  0.99267741  0.89434816  0.46598291     0.75700
C223        C  0.97366797  0.98860443  0.59895150     0.76100
C224        C  0.01941835  0.10185865  0.52523770     0.77200
C225        C  0.11137530  0.96615370  0.52300933     0.76300
C226        C  0.24204821  0.12423684  0.99395841    -0.03400
Zn227      Zn  0.46199527  0.99368250  0.04861885     1.49700
Zn228      Zn  0.46132061  0.03364987  0.96858083     1.49400
Zn229      Zn  0.54012196  0.03676509  0.00980890     1.49100
Zn230      Zn  0.50346637  0.95605051  0.96930194     1.49500
O231        O  0.49414954  0.00300621  0.00127246    -1.85000
O232        O  0.40618468  0.02211057  0.04210109    -0.75600
O233        O  0.46638344  0.09049068  0.97841622    -0.75400
O234        O  0.54917808  0.03756188  0.07026913    -0.75000
O235        O  0.40560829  0.02016420  0.97618516    -0.75600
O236        O  0.49438715  0.01069379  0.09701542    -0.75200
O237        O  0.53213999  0.09236019  0.98023549    -0.75800
O238        O  0.56323750  0.94914533  0.96823606    -0.75200
O239        O  0.47215609  0.02669453  0.91195470    -0.76000
O240        O  0.58904784  0.00562032  0.99186861    -0.75400
O241        O  0.47542591  0.96100935  0.91281438    -0.75800
O242        O  0.48719694  0.90753301  0.00254598    -0.75700
O243        O  0.46094222  0.93373432  0.05777685    -0.75500
C244        C  0.38862874  0.02888709  0.00861604     0.76300
C245        C  0.49858268  0.10852601  0.97107442     0.76800
C246        C  0.52978665  0.02403877  0.10029561     0.75700
C247        C  0.59280745  0.96977087  0.97999295     0.76100
C248        C  0.46644231  0.99379302  0.89490864     0.77200
C249        C  0.47407374  0.90400665  0.03820571     0.76300
Zn250      Zn  0.47490547  0.96285764  0.53036086     1.49700
Zn251      Zn  0.47531894  0.00480218  0.45385932     1.49400
Zn252      Zn  0.51906184  0.03945738  0.53329739     1.49100
Zn253      Zn  0.55416733  0.95999233  0.49062504     1.49500
O254        O  0.50865267  0.99385719  0.50008495    -1.85000
O255        O  0.44006611  0.93149484  0.49646748    -0.75600
O256        O  0.47758519  0.06401428  0.44601142    -0.75400
O257        O  0.49001026  0.03333990  0.58825617    -0.75000
O258        O  0.41752051  0.98199406  0.46088499    -0.75600
O259        O  0.44183479  0.99449673  0.56621156    -0.75200
O260        O  0.50319066  0.08920686  0.50193429    -0.75800
O261        O  0.60357696  0.99160423  0.50631123    -0.75200
O262        O  0.50430328  0.98531650  0.40471456    -0.76000
O263        O  0.57909350  0.04584069  0.53594777    -0.75400
O264        O  0.55975701  0.95814733  0.43020376    -0.75800
O265        O  0.54722413  0.90418297  0.51988526    -0.75700
O266        O  0.50316899  0.92494885  0.56403670    -0.75500
C267        C  0.41138342  0.94897353  0.47918761     0.76300
C268        C  0.49079261  0.09328684  0.46604245     0.76800
C269        C  0.45684490  0.01530369  0.59373024     0.75700
C270        C  0.60812376  0.02610383  0.52140038     0.76100
C271        C  0.53933916  0.97110685  0.40047039     0.77200
C272        C  0.52530990  0.89766773  0.55067478     0.76300
C273        C  0.51293957  0.24119067  0.37559721    -0.03400
Zn274      Zn  0.97015923  0.51119098  0.96610055     1.49700
Zn275      Zn  0.97300823  0.46578834  0.04727658     1.49400
Zn276      Zn  0.05222043  0.46683491  0.00058974     1.49100
Zn277      Zn  0.01593386  0.54662301  0.04364353     1.49500
O278        O  0.00373023  0.49832391  0.01349309    -1.85000
O279        O  0.91571480  0.47974913  0.96529357    -0.75600
O280        O  0.99666245  0.41524411  0.05787484    -0.75400
O281        O  0.05776744  0.46935453  0.94035094    -0.75000
O282        O  0.92212639  0.45242862  0.02524546    -0.75600
O283        O  0.00435475  0.50193181  0.91724916    -0.75200
O284        O  0.05280571  0.40792288  0.02501388    -0.75800
O285        O  0.07549407  0.55299887  0.04452602    -0.75200
O286        O  0.96385087  0.48698947  0.09932990    -0.76000
O287        O  0.10138032  0.49884469  0.01649389    -0.75400
O288        O  0.99002274  0.54728987  0.10103646    -0.75800
O289        O  0.00211370  0.59424335  0.00875089    -0.75700
O290        O  0.96320212  0.57119573  0.96029379    -0.75500
C291        C  0.90243019  0.45739952  0.99349544     0.76300
C292        C  0.02626744  0.39416892  0.04888277     0.76800
C293        C  0.03890101  0.48702608  0.91205030     0.75700
C294        C  0.10515386  0.53383670  0.03058861     0.76100
C295        C  0.97098125  0.51865704  0.11779476     0.77200
C296        C  0.98264390  0.59945005  0.97640533     0.76300
Zn297      Zn  0.45802923  0.47667033  0.99865686     1.49700
Zn298      Zn  0.49361636  0.55863514  0.95786188     1.49400
Zn299      Zn  0.53753022  0.51859915  0.03573861     1.49100
Zn300      Zn  0.53690563  0.47562986  0.95308285     1.49500
O301        O  0.50582857  0.50845618  0.98691340    -1.85000
O302        O  0.40896383  0.50810488  0.98253793    -0.75600
O303        O  0.50885316  0.60622141  0.99307161    -0.75400
O304        O  0.50524847  0.50278505  0.08445003    -0.75000
O305        O  0.43304647  0.56508531  0.95766949    -0.75600
O306        O  0.45050183  0.47637678  0.05826012    -0.75200
O307        O  0.53943063  0.57807488  0.04530981    -0.75800
O308        O  0.58411428  0.45543793  0.98010338    -0.75200
O309        O  0.52150015  0.56029926  0.90103285    -0.76000
O310        O  0.59307037  0.48997373  0.03550079    -0.75400
O311        O  0.55609684  0.50405805  0.90642641    -0.75800
O312        O  0.50960306  0.42819037  0.93301406    -0.75700
O313        O  0.45840741  0.41966409  0.97369939    -0.75500
C314        C  0.40411244  0.54385541  0.97037437     0.76300
C315        C  0.52423850  0.60852462  0.02793218     0.76800
C316        C  0.46985229  0.48970713  0.08804407     0.75700
C317        C  0.60454834  0.46353556  0.01068935     0.76100
C318        C  0.54737070  0.53561504  0.88751279     0.77200
C319        C  0.48086775  0.40728414  0.94553470     0.76300
Zn320      Zn  0.02921644  0.47136014  0.53846879     1.49700
Zn321      Zn  0.97693667  0.54744749  0.54067940     1.49400
Zn322      Zn  0.02628972  0.51976448  0.46001220     1.49100
Zn323      Zn  0.94926266  0.46889523  0.49086225     1.49500
O324        O  0.99463589  0.50276027  0.50678436    -1.85000
O325        O  0.03870001  0.49208986  0.59071126    -0.75600
O326        O  0.98660006  0.59819275  0.50827570    -0.75400
O327        O  0.08443168  0.49580328  0.45900920    -0.75000
O328        O  0.00427637  0.54773567  0.59794420    -0.75600
O329        O  0.08218053  0.46435866  0.51722342    -0.75200
O330        O  0.02514273  0.57977417  0.45721664    -0.75800
O331        O  0.94690729  0.46613446  0.43071943    -0.75200
O332        O  0.91645266  0.54791060  0.54337987    -0.76000
O333        O  0.99505435  0.50682981  0.40998279    -0.75400
O334        O  0.89826018  0.49958186  0.50202375    -0.75800
O335        O  0.95055324  0.41195835  0.51748150    -0.75700
O336        O  0.00871632  0.41926480  0.54717623    -0.75500
C337        C  0.02894083  0.52163710  0.61140933     0.76300
C338        C  0.00501831  0.60596873  0.47581660     0.76800
C339        C  0.10109169  0.47452337  0.48629945     0.75700
C340        C  0.96412722  0.48608922  0.40316610     0.76100
C341        C  0.89001989  0.53025924  0.52260654     0.77200
C342        C  0.97881661  0.39818211  0.53935478     0.76300
C343        C  0.24869993  0.38209291  0.49123742    -0.03400
Zn344      Zn  0.46886891  0.46941008  0.46151743     1.49700
Zn345      Zn  0.51400987  0.55032354  0.46234317     1.49400
Zn346      Zn  0.47138197  0.50967572  0.54264700     1.49100
Zn347      Zn  0.55035762  0.46780432  0.50390453     1.49500
O348        O  0.50231822  0.50047931  0.49327395    -1.85000
O349        O  0.46140784  0.49175540  0.41023687    -0.75600
O350        O  0.49963792  0.59770994  0.49849938    -0.75400
O351        O  0.41227003  0.48819477  0.54099881    -0.75000
O352        O  0.48620869  0.55193807  0.40406275    -0.75600
O353        O  0.41494916  0.46414245  0.47997643    -0.75200
O354        O  0.47382385  0.56851447  0.55270517    -0.75800
O355        O  0.55939346  0.46898645  0.56339498    -0.75200
O356        O  0.57490254  0.55606649  0.46114674    -0.76000
O357        O  0.50318175  0.49112921  0.59100596    -0.75400
O358        O  0.59919614  0.50042617  0.48920224    -0.75800
O359        O  0.54773385  0.40960744  0.47848530    -0.75700
O360        O  0.48784383  0.41659309  0.45220221    -0.75500
C361        C  0.46624650  0.52279872  0.38966000     0.76300
C362        C  0.48726509  0.59921269  0.53463714     0.76800
C363        C  0.39546031  0.47156482  0.51111841     0.75700
C364        C  0.53973406  0.48101582  0.59349471     0.76100
C365        C  0.60391697  0.53575030  0.47567267     0.77200
C366        C  0.51839853  0.39558425  0.45836865     0.76300
C367        C  0.37979841  0.50921498  0.23628657    -0.03400
C368        C  0.00633182  0.74207983  0.87551550    -0.03400
Zn369      Zn  0.22875377  0.71756341  0.78866258     1.49700
Zn370      Zn  0.30595143  0.76014482  0.78840567     1.49400
Zn371      Zn  0.26542007  0.71993670  0.70999231     1.49100
Zn372      Zn  0.22490252  0.79770387  0.74894262     1.49500
O373        O  0.25865359  0.75162687  0.75683742    -1.85000
O374        O  0.23403642  0.73193518  0.84427113    -0.75600
O375        O  0.35336268  0.74022186  0.75551319    -0.75400
O376        O  0.23485137  0.66670395  0.71730254    -0.75000
O377        O  0.29974400  0.73255831  0.84523592    -0.75600
O378        O  0.24303186  0.66085885  0.78248514    -0.75200
O379        O  0.32454975  0.71445794  0.70140736    -0.75800
O380        O  0.22438781  0.80811852  0.68900621    -0.75200
O381        O  0.31314656  0.82023180  0.78798662    -0.76000
O382        O  0.24793117  0.75250335  0.66165309    -0.75400
O383        O  0.25458203  0.84663228  0.76943507    -0.75800
O384        O  0.16834433  0.78709696  0.77398444    -0.75700
O385        O  0.17216558  0.72135712  0.77662858    -0.75500
C386        C  0.26638026  0.72469247  0.86219305     0.76300
C387        C  0.35551519  0.72557233  0.72040167     0.76800
C388        C  0.23067750  0.64673075  0.74984880     0.75700
C389        C  0.23565024  0.78839633  0.65855856     0.76100
C390        C  0.29133341  0.85023027  0.77878226     0.77200
C391        C  0.15237982  0.75305676  0.78118342     0.76300
C392        C  0.50608651  0.74290450  0.63223845    -0.03400
C393        C  0.39451119  0.73155239  0.65729932    -0.14200
C394        C  0.39416405  0.72574668  0.69893138     0.07900
C395        C  0.43056576  0.72492421  0.71939077    -0.14200
C396        C  0.46650158  0.72994480  0.69867777    -0.14200
C397        C  0.46704236  0.73829570  0.65701216     0.07900
C398        C  0.43018286  0.73792890  0.63681032    -0.14200
H399        H  0.36690245  0.73274011  0.64058143     0.11900
H400        H  0.43125860  0.72018688  0.75142766     0.11900
H401        H  0.49361831  0.72672456  0.71575808     0.11900
H402        H  0.42904857  0.74285172  0.60482000     0.11900
C403        C  0.05184068  0.77769175  0.82589393    -0.14200
C404        C  0.04272642  0.74209530  0.84719266     0.07900
C405        C  0.06689754  0.70870077  0.84047844    -0.14200
C406        C  0.10099808  0.71202690  0.81668874    -0.14200
C407        C  0.11212718  0.74880279  0.79911289     0.07900
C408        C  0.08652194  0.78132956  0.80313212    -0.14200
H409        H  0.03304375  0.80372518  0.82897986     0.11900
H410        H  0.05999248  0.68010909  0.85373410     0.11900
H411        H  0.11969727  0.68591858  0.81363170     0.11900
H412        H  0.09382191  0.80982482  0.78971859     0.11900
C413        C  0.49234401  0.67398596  0.54008573    -0.14200
C414        C  0.49223991  0.63623935  0.55817657     0.07900
C415        C  0.49992795  0.63341894  0.59944804    -0.14200
C416        C  0.50687674  0.66746366  0.62216524    -0.14200
C417        C  0.50609436  0.70580219  0.60464395     0.07900
C418        C  0.49833541  0.70825976  0.56297988    -0.14200
H419        H  0.48664989  0.67710453  0.50836352     0.11900
H420        H  0.50092575  0.60464114  0.61428225     0.11900
H421        H  0.51170812  0.66399913  0.65400203     0.11900
H422        H  0.49508762  0.73656765  0.54779412     0.11900
C423        C  0.45036704  0.55019899  0.31916295    -0.14200
C424        C  0.44565347  0.52191517  0.34985552     0.07900
C425        C  0.41941522  0.48982740  0.34294219    -0.14200
C426        C  0.39955286  0.48518751  0.30693836    -0.14200
C427        C  0.40499140  0.51216174  0.27525707     0.07900
C428        C  0.42998390  0.54553721  0.28248139    -0.14200
H429        H  0.46957334  0.57561515  0.32339612     0.11900
H430        H  0.41336063  0.46774227  0.36588726     0.11900
H431        H  0.37875021  0.46084368  0.30500853     0.11900
H432        H  0.43363940  0.56810841  0.25950124     0.11900
C433        C  0.29848226  0.43583177  0.46819787    -0.14200
C434        C  0.28454797  0.41056508  0.49879035     0.07900
C435        C  0.30204872  0.41528820  0.53726919    -0.14200
C436        C  0.33642251  0.43819645  0.54279693    -0.14200
C437        C  0.35336910  0.45837709  0.51044738     0.07900
C438        C  0.33288321  0.45854786  0.47362754    -0.14200
H439        H  0.28414065  0.43610611  0.43921182     0.11900
H440        H  0.28999252  0.40054691  0.56337957     0.11900
H441        H  0.35100274  0.43807047  0.57166777     0.11900
H442        H  0.34481354  0.47470087  0.44819563     0.11900
C443        C  0.16449424  0.45507602  0.51960844    -0.14200
C444        C  0.14251449  0.45934085  0.48395901     0.07900
C445        C  0.15746209  0.44207586  0.44923489    -0.14200
C446        C  0.19196221  0.41836891  0.45091422    -0.14200
C447        C  0.21182763  0.41026651  0.48770723     0.07900
C448        C  0.19892256  0.43164199  0.52126454    -0.14200
H449        H  0.15393524  0.46856377  0.54690449     0.11900
H450        H  0.14138934  0.44509409  0.42130312     0.11900
H451        H  0.20243714  0.40606184  0.42313587     0.11900
H452        H  0.21444723  0.42857174  0.54949028     0.11900
C453        C  0.40729117  0.50122186  0.12570850    -0.14200
C454        C  0.44856157  0.49469684  0.12642784     0.07900
C455        C  0.46878747  0.49777917  0.16296632    -0.14200
C456        C  0.44774012  0.50487205  0.19842679    -0.14200
C457        C  0.40591553  0.51067456  0.19803167     0.07900
C458        C  0.38651618  0.50961240  0.16063863    -0.14200
H459        H  0.39090606  0.50038835  0.09783943     0.11900
H460        H  0.50074764  0.49364238  0.16426979     0.11900
H461        H  0.46437876  0.50377023  0.22602301     0.11900
H462        H  0.35454266  0.51341341  0.15879571     0.11900
C463        C  0.02391362  0.65707540  0.95300087    -0.14200
C464        C  0.98679379  0.63776336  0.95439015     0.07900
C465        C  0.95584414  0.65263736  0.93064707    -0.14200
C466        C  0.96179601  0.68585683  0.90590824    -0.14200
C467        C  0.99983443  0.70396144  0.90177342     0.07900
C468        C  0.03029747  0.68964729  0.92719896    -0.14200
H469        H  0.04856302  0.64604396  0.97086885     0.11900
H470        H  0.92681689  0.63870975  0.93145390     0.11900
H471        H  0.93581148  0.69737975  0.89065469     0.11900
H472        H  0.05926505  0.70367047  0.92694595     0.11900
C473        C  0.54556571  0.32534900  0.44757295    -0.14200
C474        C  0.51752697  0.35531356  0.43963510     0.07900
C475        C  0.48672549  0.34707679  0.41208477    -0.14200
C476        C  0.48423102  0.31070341  0.39254998    -0.14200
C477        C  0.51199349  0.28025206  0.40022305     0.07900
C478        C  0.54280311  0.28840660  0.42818511    -0.14200
H479        H  0.56960469  0.33045676  0.46845570     0.11900
H480        H  0.46456826  0.36938083  0.40446973     0.11900
H481        H  0.46117497  0.30752069  0.37030902     0.11900
H482        H  0.56528097  0.26610248  0.43460240     0.11900
C483        C  0.54132644  0.78913512  0.58189000    -0.14200
C484        C  0.50842637  0.78230047  0.60768967     0.07900
C485        C  0.48266999  0.81450408  0.61475685    -0.14200
C486        C  0.48916659  0.85144163  0.59663462    -0.14200
C487        C  0.52154621  0.85796769  0.57055823     0.07900
C488        C  0.54742261  0.82618296  0.56307831    -0.14200
H489        H  0.56270140  0.76556815  0.57667660     0.11900
H490        H  0.45827455  0.81214707  0.63561240     0.11900
H491        H  0.46830847  0.87512140  0.60322777     0.11900
H492        H  0.57255325  0.83006392  0.54323661     0.11900
C493        C  0.49458979  0.16827445  0.46456409    -0.14200
C494        C  0.49642946  0.13165526  0.44491990     0.07900
C495        C  0.50772084  0.13103673  0.40462590    -0.14200
C496        C  0.51607929  0.16617091  0.38403571    -0.14200
C497        C  0.51243908  0.20349191  0.40259894     0.07900
C498        C  0.50166618  0.20388684  0.44350770    -0.14200
H499        H  0.48652887  0.16941164  0.49583470     0.11900
H500        H  0.51060652  0.10310668  0.38896488     0.11900
H501        H  0.52384830  0.16438903  0.35272263     0.11900
H502        H  0.49693166  0.23145467  0.45915529     0.11900
C503        C  0.30932658  0.09751566  0.96625492    -0.14200
C504        C  0.27981888  0.09742835  0.99600205     0.07900
C505        C  0.28700964  0.07395687  0.03085051    -0.14200
C506        C  0.32193365  0.05136539  0.03554207    -0.14200
C507        C  0.35039836  0.05094215  0.00516610     0.07900
C508        C  0.34352707  0.07417722  0.97051831    -0.14200
H509        H  0.30705730  0.11622727  0.93997269     0.11900
H510        H  0.26540999  0.07349161  0.05481390     0.11900
H511        H  0.32656409  0.03421721  0.06270037     0.11900
H512        H  0.36552656  0.07550082  0.94690779     0.11900
C513        C  0.09243367  0.98386705  0.34759580    -0.14200
C514        C  0.06545615  0.01545940  0.35401418     0.07900
C515        C  0.05962950  0.04341762  0.32325809    -0.14200
C516        C  0.08050280  0.03949733  0.28704927    -0.14200
C517        C  0.10684157  0.00701911  0.28041576     0.07900
C518        C  0.11276041  0.97986507  0.31195875    -0.14200
H519        H  0.09864962  0.96177748  0.37055637     0.11900
H520        H  0.03944953  0.06823877  0.32725238     0.11900
H521        H  0.07615026  0.06184329  0.26392282     0.11900
H522        H  0.13416605  0.95590786  0.31030243     0.11900
C523        C  0.30063226  0.42711923  0.21262636    -0.14200
C524        C  0.32404384  0.39246356  0.21466755     0.07900
C525        C  0.36469894  0.39634096  0.22367517    -0.14200
C526        C  0.38136559  0.43338281  0.23165251    -0.14200
C527        C  0.35807397  0.46842907  0.23171827     0.07900
C528        C  0.31741148  0.46465647  0.22082734    -0.14200
H529        H  0.26908857  0.42503697  0.20634592     0.11900
H530        H  0.38359235  0.37020263  0.22580242     0.11900
H531        H  0.41292796  0.43475492  0.23810205     0.11900
H532        H  0.29845441  0.49056973  0.21797280     0.11900
C533        C  0.28553197  0.33003184  0.39528000    -0.14200
C534        C  0.25124165  0.30917945  0.38295786     0.07900
C535        C  0.21800612  0.30911973  0.40801720    -0.14200
C536        C  0.21838116  0.33144912  0.44320507    -0.14200
C537        C  0.25146113  0.35551726  0.45369928     0.07900
C538        C  0.28581439  0.35244443  0.43014173    -0.14200
H539        H  0.31249845  0.32951725  0.37760894     0.11900
H540        H  0.19150477  0.29275838  0.40000509     0.11900
H541        H  0.19191503  0.33143360  0.46162105     0.11900
H542        H  0.31319783  0.36698974  0.43832028     0.11900
C543        C  0.47755606  0.22377444  0.30752955    -0.14200
C544        C  0.47552148  0.23474380  0.34842271     0.07900
C545        C  0.43771383  0.23286212  0.36663341    -0.14200
C546        C  0.40360093  0.22358830  0.34478286    -0.14200
C547        C  0.40551537  0.21564582  0.30368666     0.07900
C548        C  0.44295817  0.21518790  0.28535051    -0.14200
H549        H  0.50571718  0.22129387  0.29227223     0.11900
H550        H  0.43455222  0.23905083  0.39815314     0.11900
H551        H  0.37500730  0.22486943  0.35967603     0.11900
H552        H  0.44532583  0.20995627  0.25358267     0.11900
C553        C  0.20792472  0.08029328  0.28273940    -0.14200
C554        C  0.20447007  0.11231488  0.25605747     0.07900
C555        C  0.17836717  0.10922890  0.22341398    -0.14200
C556        C  0.15571928  0.07480086  0.21752221    -0.14200
C557        C  0.15896600  0.04201860  0.24397741     0.07900
C558        C  0.18532464  0.04579800  0.27693623    -0.14200
H559        H  0.22770109  0.08210844  0.30821950     0.11900
H560        H  0.17509719  0.13392999  0.20260072     0.11900
H561        H  0.13492478  0.07479787  0.19289397     0.11900
H562        H  0.18808060  0.02182660  0.29861674     0.11900
C563        C  0.22487606  0.14866083  0.06556850    -0.14200
C564        C  0.24769993  0.15211756  0.03040805     0.07900
C565        C  0.28137227  0.17758620  0.03150183    -0.14200
C566        C  0.29193739  0.19829534  0.06615777    -0.14200
C567        C  0.26978723  0.19334551  0.10112112     0.07900
C568        C  0.23591681  0.16887154  0.10032403    -0.14200
H569        H  0.19968375  0.12880934  0.06725763     0.11900
H570        H  0.30030964  0.18045127  0.00550195     0.11900
H571        H  0.31797699  0.21720478  0.06595274     0.11900
H572        H  0.21817208  0.16492522  0.12705850     0.11900
C573        C  0.05123074  0.82804433  0.93905681    -0.14200
C574        C  0.01704851  0.84368458  0.95680469     0.07900
C575        C  0.98123388  0.82214033  0.95372551    -0.14200
C576        C  0.97854696  0.78854656  0.92953977    -0.14200
C577        C  0.01115676  0.77631500  0.90633572     0.07900
C578        C  0.04849022  0.79437663  0.91473908    -0.14200
H579        H  0.07944667  0.84329085  0.94167240     0.11900
H580        H  0.95444227  0.83279697  0.96814270     0.11900
H581        H  0.95012636  0.77371011  0.92681054     0.11900
H582        H  0.07575793  0.78354530  0.90156453     0.11900
C583        C  0.13117511  0.09580991  0.98694924    -0.14200
C584        C  0.13231163  0.05446808  0.98063972     0.07900
C585        C  0.16916035  0.03497856  0.98279796    -0.14200
C586        C  0.20424592  0.05645724  0.98927364    -0.14200
C587        C  0.20362836  0.09827169  0.99524642     0.07900
C588        C  0.16607184  0.11721247  0.99444406    -0.14200
H589        H  0.10307900  0.11171185  0.98658216     0.11900
H590        H  0.17099231  0.00310779  0.97858103     0.11900
H591        H  0.23176455  0.03990250  0.98765900     0.11900
H592        H  0.16398225  0.14914630  0.99803896     0.11900
C593        C  0.10064644  0.99183195  0.13200451    -0.14200
C594        C  0.05969219  0.98374398  0.13440662     0.07900
C595        C  0.04093358  0.98658632  0.17160847    -0.14200
C596        C  0.06298642  0.99561836  0.20593428    -0.14200
C597        C  0.10447560  0.00348611  0.20392163     0.07900
C598        C  0.12251296  0.00169744  0.16598244    -0.14200
H599        H  0.11593188  0.99096167  0.10356883     0.11900
H600        H  0.00932760  0.98094405  0.17432802     0.11900
H601        H  0.04733246  0.99429794  0.23402757     0.11900
H602        H  0.15425172  0.00637055  0.16296243     0.11900
C603        C  0.04610025  0.28384436  0.07214714    -0.14200
C604        C  0.01733545  0.27621790  0.10237876     0.07900
C605        C  0.99526258  0.30881953  0.11622354    -0.14200
C606        C  0.99990041  0.34646818  0.09939326    -0.14200
C607        C  0.02679208  0.35371381  0.06779353     0.07900
C608        C  0.05034120  0.32195286  0.05459199    -0.14200
H609        H  0.06533975  0.26008329  0.06206310     0.11900
H610        H  0.97508026  0.30589857  0.14118896     0.11900
H611        H  0.98189436  0.37023706  0.11156061     0.11900
H612        H  0.07159590  0.32641107  0.03071443     0.11900
C613        C  0.05555193  0.26460950  0.18374288    -0.14200
C614        C  0.05421676  0.23783775  0.15125664     0.07900
C615        C  0.09066123  0.22167609  0.13809574    -0.14200
C616        C  0.12658220  0.23196062  0.15646026    -0.14200
C617        C  0.12733340  0.25833405  0.18874385     0.17500
C618        C  0.09145055  0.27384015  0.20292299    -0.14200
H619        H  0.02870480  0.27939612  0.19363015     0.11900
H620        H  0.09190531  0.20266947  0.11224032     0.11900
H621        H  0.15404704  0.21917682  0.14539261     0.11900
H622        H  0.09133642  0.29405209  0.22792093     0.11900
C623        C  0.01912327  0.16123270  0.11362193    -0.14200
C624        C  0.01519023  0.19956486  0.09666108     0.07900
C625        C  0.00055752  0.20230929  0.05691889    -0.14200
C626        C  0.98965820  0.16811170  0.03566580    -0.14200
C627        C  0.99155010  0.13047202  0.05402001     0.07900
C628        C  0.00721519  0.12748788  0.09289701    -0.14200
H629        H  0.02929267  0.15760342  0.14415140     0.11900
H630        H  0.99512213  0.23084198  0.04276340     0.11900
H631        H  0.97837393  0.17123754  0.00548291     0.11900
H632        H  0.01035956  0.09874839  0.10753012     0.11900
C633        C  0.01281535  0.31134844  0.60315876    -0.14200
C634        C  0.98452387  0.28181137  0.59546108     0.07900
C635        C  0.95270857  0.29152578  0.56905707    -0.14200
C636        C  0.95014802  0.32900308  0.55022264    -0.14200
C637        C  0.97916667  0.35778101  0.55771119     0.07900
C638        C  0.01039183  0.34822503  0.58440763    -0.14200
H639        H  0.03639157  0.30700496  0.62473710     0.11900
H640        H  0.92964980  0.26990140  0.56321756     0.11900
H641        H  0.92561012  0.33544003  0.53015758     0.11900
H642        H  0.03315440  0.36970099  0.59177233     0.11900
C643        C  0.99410891  0.13449315  0.58551382    -0.14200
C644        C  0.00810544  0.13836613  0.54623533     0.07900
C645        C  0.00687225  0.17566466  0.52741242    -0.14200
C646        C  0.99551176  0.20931921  0.54905893    -0.14200
C647        C  0.98380343  0.20601544  0.58969969     0.07900
C648        C  0.98163848  0.16759869  0.60670071    -0.14200
H649        H  0.99315052  0.10560155  0.60013492     0.11900
H650        H  0.01642898  0.17901044  0.49669749     0.11900
H651        H  0.99891132  0.23789840  0.53444765     0.11900
H652        H  0.97328712  0.16361443  0.63770712     0.11900
C653        C  0.06016485  0.21351151  0.70346575    -0.14200
C654        C  0.09619749  0.21481688  0.68252763     0.07900
C655        C  0.09545995  0.22336773  0.64147483    -0.14200
C656        C  0.05994750  0.23263954  0.62206116    -0.14200
C657        C  0.02346524  0.23378044  0.64286468     0.07900
C658        C  0.02408315  0.22212345  0.68373985    -0.14200
H659        H  0.06008718  0.20776595  0.73534371     0.11900
H660        H  0.12300790  0.22531744  0.62476837     0.11900
H661        H  0.06104635  0.23987050  0.59050430     0.11900
H662        H  0.99698085  0.21957967  0.70085255     0.11900
C663        C  0.28336328  0.30489966  0.57016694    -0.14200
C664        C  0.25003707  0.30200145  0.59494868     0.07900
C665        C  0.21395479  0.31963343  0.58189976    -0.14200
C666        C  0.21237610  0.34368522  0.54784935    -0.14200
C667        C  0.24690253  0.35094721  0.52557232     0.07900
C668        C  0.28140080  0.32813304  0.53516977    -0.14200
H669        H  0.31119832  0.29080128  0.57860146     0.11900
H670        H  0.18683473  0.31632742  0.59903772     0.11900
H671        H  0.18415096  0.35700773  0.53971824     0.11900
H672        H  0.30800066  0.33104472  0.51716534     0.11900
C673        C  0.22403055  0.20994701  0.91588533    -0.14200
C674        C  0.22102325  0.18870487  0.88012231     0.07900
C675        C  0.22555738  0.14712865  0.88170285    -0.14200
C676        C  0.23365995  0.12741054  0.91778270    -0.14200
C677        C  0.23757276  0.14831247  0.95399558     0.07900
C678        C  0.23138320  0.19008973  0.95230987    -0.14200
H679        H  0.22052732  0.24199831  0.91574639     0.11900
H680        H  0.22391893  0.12969364  0.85471598     0.11900
H681        H  0.23674279  0.09532549  0.91751388     0.11900
H682        H  0.23127001  0.20786281  0.97899609     0.11900
C683        C  0.48721246  0.32710486  0.86782488    -0.14200
C684        C  0.48336404  0.29163391  0.89038913     0.07900
C685        C  0.47332573  0.29538908  0.93132606    -0.14200
C686        C  0.46966831  0.33304285  0.94911897    -0.14200
C687        C  0.47589448  0.36786078  0.92656050     0.07900
C688        C  0.48421332  0.36434766  0.88566503    -0.14200
H689        H  0.49332780  0.32585594  0.83611427     0.11900
H690        H  0.46770953  0.26945336  0.94977101     0.11900
H691        H  0.46350837  0.33488034  0.98078140     0.11900
H692        H  0.48920652  0.39068812  0.86745661     0.11900
C693        C  0.51812761  0.21115209  0.92522494    -0.14200
C694        C  0.48612524  0.21507988  0.89762429     0.07900
C695        C  0.45897133  0.18337296  0.89553630    -0.14200
C696        C  0.46301752  0.15002718  0.92043941    -0.14200
C697        C  0.49506142  0.14614488  0.94746358     0.07900
C698        C  0.52282594  0.17700053  0.94942359    -0.14200
H699        H  0.54011382  0.23448484  0.92752286     0.11900
H700        H  0.43512625  0.18320935  0.87387879     0.11900
H701        H  0.44154076  0.12625449  0.91733480     0.11900
H702        H  0.54794954  0.17480508  0.96961665     0.11900
C703        C  0.40955457  0.25625965  0.86086279    -0.14200
C704        C  0.44675119  0.25304253  0.84163441     0.07900
C705        C  0.44721719  0.25848145  0.79955019    -0.14200
C706        C  0.41178235  0.26471231  0.77786028    -0.14200
C707        C  0.37507105  0.26749855  0.79764770     0.07900
C708        C  0.37463264  0.26352158  0.83944592    -0.14200
H709        H  0.40764076  0.25370452  0.89306483     0.11900
H710        H  0.47476354  0.25924325  0.78302964     0.11900
H711        H  0.41315980  0.26776670  0.74566873     0.11900
H712        H  0.34691976  0.26500142  0.85585641     0.11900
C713        C  0.55616427  0.98737157  0.28902010    -0.14200
C714        C  0.59773269  0.99428033  0.28744938     0.07900
C715        C  0.61909620  0.99114783  0.32375200    -0.14200
C716        C  0.60025945  0.98119778  0.35956263    -0.14200
C717        C  0.55902587  0.97493869  0.36095678     0.07900
C718        C  0.53706665  0.97866474  0.32537550    -0.14200
H719        H  0.53815036  0.98732911  0.26228946     0.11900
H720        H  0.65103347  0.99533543  0.32411773     0.11900
H721        H  0.61802745  0.97962643  0.38656208     0.11900
H722        H  0.50512184  0.97448537  0.32561150     0.11900
C723        C  0.56827244  0.03433264  0.20670735    -0.14200
C724        C  0.59437839  0.00117342  0.21031341     0.07900
C725        C  0.59812837  0.97626406  0.17680464    -0.14200
C726        C  0.57689932  0.98427254  0.14155670    -0.14200
C727        C  0.55131165  0.01729735  0.13840833     0.07900
C728        C  0.54663031  0.04197832  0.17147296    -0.14200
H729        H  0.56518477  0.05482388  0.23128412     0.11900
H730        H  0.61863900  0.95144158  0.17677443     0.11900
H731        H  0.58082520  0.96472439  0.11629020     0.11900
H732        H  0.52697299  0.06753952  0.16978578     0.11900
C733        C  0.67469977  0.03924631  0.21193089    -0.14200
C734        C  0.64868670  0.03462818  0.24499690     0.07900
C735        C  0.64615335  0.06639996  0.27213185    -0.14200
C736        C  0.66950549  0.10047669  0.26703702    -0.14200
C737        C  0.69595998  0.10405272  0.23480187     0.07900
C738        C  0.69849729  0.07318757  0.20725722    -0.14200
H739        H  0.67670358  0.01612628  0.18970594     0.11900
H740        H  0.62542548  0.06586721  0.29675906     0.11900
H741        H  0.66661416  0.12449011  0.28823201     0.11900
H742        H  0.71819056  0.07567389  0.18179303     0.11900
C743        C  0.62340639  0.23351379  0.34418731    -0.14200
C744        C  0.62510727  0.25965355  0.31136509     0.07900
C745        C  0.59045196  0.27951708  0.29909332    -0.14200
C746        C  0.55470269  0.27355065  0.31987904    -0.14200
C747        C  0.55195671  0.24513037  0.35129386     0.07900
C748        C  0.58743357  0.22599642  0.36361758    -0.14200
H749        H  0.64997788  0.21801019  0.35425678     0.11900
H750        H  0.59120671  0.30004834  0.27398206     0.11900
H751        H  0.52878070  0.29074612  0.31103404     0.11900
H752        H  0.58798886  0.20603198  0.38912639     0.11900
C753        C  0.93981303  0.20640967  0.20908750    -0.14200
C754        C  0.90357210  0.21233771  0.18890629     0.07900
C755        C  0.90474364  0.22507214  0.14883693    -0.14200
C756        C  0.94060236  0.23345224  0.12979985    -0.14200
C757        C  0.97732217  0.22957076  0.14985436     0.07900
C758        C  0.97631889  0.21428495  0.18959020    -0.14200
H759        H  0.93990603  0.19715223  0.24014612     0.11900
H760        H  0.87732240  0.23022093  0.13245416     0.11900
H761        H  0.93963853  0.24347268  0.09898851     0.11900
H762        H  0.00355333  0.20809110  0.20574058     0.11900
C763        C  0.89965480  0.45949070  0.31541852    -0.14200
C764        C  0.89494792  0.49652727  0.29501770     0.07900
C765        C  0.91909094  0.52824976  0.30794274    -0.14200
C766        C  0.94372486  0.52413040  0.34165381    -0.14200
C767        C  0.94502279  0.48812263  0.36339209     0.07900
C768        C  0.92315218  0.45582473  0.34957487    -0.14200
H769        H  0.88579043  0.43249163  0.30528095     0.11900
H770        H  0.91837532  0.55653159  0.29218012     0.11900
H771        H  0.96034667  0.54969304  0.35178617     0.11900
H772        H  0.92416071  0.42753404  0.36535497     0.11900
C773        C  0.90376076  0.54611394  0.20258059    -0.14200
C774        C  0.89967928  0.50862742  0.22243389     0.07900
C775        C  0.92817675  0.47929290  0.21329418    -0.14200
C776        C  0.95463018  0.48460956  0.18154286    -0.14200
C777        C  0.95454986  0.51999449  0.15865692     0.07900
C778        C  0.93024852  0.55140403  0.17066158    -0.14200
H779        H  0.88626295  0.57171474  0.21093173     0.11900
H780        H  0.92862772  0.45128186  0.22955239     0.11900
H781        H  0.97357857  0.45990803  0.17316762     0.11900
H782        H  0.92982599  0.57910297  0.15385460     0.11900
C783        C  0.84628248  0.43660657  0.22041556    -0.14200
C784        C  0.84272173  0.46324959  0.25220486     0.07900
C785        C  0.81562474  0.45316628  0.28327999    -0.14200
C786        C  0.79880756  0.41505581  0.28611782    -0.14200
C787        C  0.80712417  0.38674049  0.25692762     0.07900
C788        C  0.82922520  0.39886513  0.22302240    -0.14200
H789        H  0.86327424  0.44388279  0.19402461     0.11900
H790        H  0.81052715  0.47368351  0.30749878     0.11900
H791        H  0.78065490  0.40739092  0.31172875     0.11900
H792        H  0.83462200  0.37864607  0.19861133     0.11900
C793        C  0.25870821  0.86798120  0.58167154    -0.14200
C794        C  0.25416169  0.84801743  0.54496367     0.07900
C795        C  0.24088985  0.80807309  0.54661227    -0.14200
C796        C  0.23418246  0.78871832  0.58332244    -0.14200
C797        C  0.23879626  0.80909764  0.61939514     0.07900
C798        C  0.25106803  0.84894537  0.61810843    -0.14200
H799        H  0.26759799  0.89892225  0.58201380     0.11900
H800        H  0.23421973  0.79182059  0.51976434     0.11900
H801        H  0.22473703  0.75793739  0.58351370     0.11900
H802        H  0.25566676  0.86526133  0.64547770     0.11900
C803        C  0.18181198  0.88205829  0.50996643    -0.14200
C804        C  0.21943285  0.90030971  0.50941394     0.07900
C805        C  0.22130365  0.94108316  0.52021619    -0.14200
C806        C  0.18640276  0.96295399  0.52852364    -0.14200
C807        C  0.14921728  0.94416858  0.52767470     0.07900
C808        C  0.14769080  0.90332749  0.51941476    -0.14200
H809        H  0.17889745  0.85069945  0.50344386     0.11900
H810        H  0.24950603  0.95620117  0.52279911     0.11900
H811        H  0.18833733  0.99459232  0.53401562     0.11900
H812        H  0.11931352  0.88812266  0.51803642     0.11900
C813        C  0.33000003  0.88469650  0.52269510    -0.14200
C814        C  0.29583600  0.89609283  0.50108308     0.07900
C815        C  0.30051847  0.92510993  0.47037228    -0.14200
C816        C  0.33761538  0.94301520  0.46279862    -0.14200
C817        C  0.37127695  0.93117874  0.48474408     0.07900
C818        C  0.36670924  0.90197710  0.51482047    -0.14200
H819        H  0.32921256  0.86113456  0.54486412     0.11900
H820        H  0.27533490  0.93361726  0.45193418     0.11900
H821        H  0.34007882  0.96540644  0.43947522     0.11900
H822        H  0.39183669  0.89203485  0.53264869     0.11900
C823        C  0.23650188  0.83598552  0.39752634    -0.14200
C824        C  0.26326422  0.80397335  0.39413809     0.07900
C825        C  0.28632893  0.79323244  0.42741140    -0.14200
C826        C  0.28326768  0.81484392  0.46308002    -0.14200
C827        C  0.25557815  0.84651904  0.46730339     0.07900
C828        C  0.23255072  0.85683359  0.43341064    -0.14200
H829        H  0.21871313  0.84516052  0.37201233     0.11900
H830        H  0.30757695  0.76903775  0.42543320     0.11900
H831        H  0.30290992  0.80698164  0.48759352     0.11900
H832        H  0.21254472  0.88209435  0.43378810     0.11900
C833        C  0.30269540  0.58101857  0.28224125    -0.14200
C834        C  0.31058453  0.61650217  0.26149644     0.07900
C835        C  0.33630810  0.61507547  0.22827939    -0.14200
C836        C  0.35596822  0.58012263  0.21775370    -0.14200
C837        C  0.35059227  0.54482321  0.23997281     0.07900
C838        C  0.32274178  0.54573529  0.27184242    -0.14200
H839        H  0.28262161  0.58092165  0.30750327     0.11900
H840        H  0.34235116  0.64163542  0.21074208     0.11900
H841        H  0.37737418  0.58196492  0.19376239     0.11900
H842        H  0.31810743  0.51939118  0.29009303     0.11900
C843        C  0.21816107  0.92698518  0.23009933    -0.14200
C844        C  0.19682873  0.89118033  0.22895604     0.07900
C845        C  0.15520006  0.89271709  0.23218394    -0.14200
C846        C  0.13541205  0.92886058  0.23721006    -0.14200
C847        C  0.15625847  0.96528543  0.23867840     0.07900
C848        C  0.19816212  0.96360367  0.23387963    -0.14200
H849        H  0.25029933  0.92669327  0.22770056     0.11900
H850        H  0.13777585  0.86564683  0.23217535     0.11900
H851        H  0.10332659  0.92842983  0.24016085     0.11900
H852        H  0.21593285  0.99027437  0.23253716     0.11900
C853        C  0.05489798  0.70409874  0.34440996    -0.14200
C854        C  0.03446163  0.74112908  0.34680058     0.07900
C855        C  0.04779000  0.77192161  0.32118627    -0.14200
C856        C  0.08268284  0.76753550  0.29850785    -0.14200
C857        C  0.10502679  0.73206497  0.30035168     0.07900
C858        C  0.09023745  0.70014201  0.32277013    -0.14200
H859        H  0.04422193  0.67773765  0.35963152     0.11900
H860        H  0.03199698  0.80004066  0.31996821     0.11900
H861        H  0.09333749  0.79268154  0.28113702     0.11900
H862        H  0.10626735  0.67212915  0.32385378     0.11900
C863        C  0.02774681  0.70600482  0.43030006    -0.14200
C864        C  0.99460602  0.71216243  0.40454242     0.07900
C865        C  0.96202906  0.68617018  0.40883613    -0.14200
C866        C  0.96471627  0.65281738  0.43430033    -0.14200
C867        C  0.99960011  0.64507149  0.45637007     0.07900
C868        C  0.03070582  0.67234411  0.45487940    -0.14200
H869        H  0.05290565  0.72603516  0.42911353     0.11900
H870        H  0.93473719  0.69085043  0.39235848     0.11900
H871        H  0.94016209  0.63202287  0.43544344     0.11900
H872        H  0.05779992  0.66694301  0.47168181     0.11900
C873        C  0.96308199  0.79383897  0.42359317    -0.14200
C874        C  0.99760276  0.78387035  0.40118189     0.07900
C875        C  0.03156478  0.80733279  0.40651227    -0.14200
C876        C  0.02981358  0.84155634  0.42961330    -0.14200
C877        C  0.99409092  0.85388467  0.44821864     0.07900
C878        C  0.96102877  0.82886171  0.44609246    -0.14200
H879        H  0.93681497  0.77534445  0.42180422     0.11900
H880        H  0.05971436  0.79958106  0.39307381     0.11900
H881        H  0.05668048  0.85912611  0.43186501     0.11900
H882        H  0.93338708  0.83693339  0.46053713     0.11900
C883        C  0.76510781  0.18357254  0.45920030    -0.14200
C884        C  0.75827709  0.14192446  0.46072281     0.07900
C885        C  0.76164658  0.12103927  0.42447632    -0.14200
C886        C  0.77129147  0.14054042  0.38868875    -0.14200
C887        C  0.77751923  0.18190878  0.38740894     0.07900
C888        C  0.77393228  0.20319984  0.42308300    -0.14200
H889        H  0.76505912  0.20135785  0.48588547     0.11900
H890        H  0.75772457  0.08906957  0.42411888     0.11900
H891        H  0.77297840  0.12312402  0.36169418     0.11900
H892        H  0.77823034  0.23512511  0.42315019     0.11900
C893        C  0.79515543  0.05090353  0.49523679    -0.14200
C894        C  0.79440566  0.09275806  0.50114241     0.07900
C895        C  0.83122929  0.11279564  0.49889783    -0.14200
C896        C  0.86652208  0.09255107  0.49001299    -0.14200
C897        C  0.86677188  0.05122388  0.48396450     0.07900
C898        C  0.83087637  0.03046647  0.48773566    -0.14200
H899        H  0.76820854  0.03355795  0.49439836     0.11900
H900        H  0.83235717  0.14479393  0.50222384     0.11900
H901        H  0.89395177  0.10935067  0.48845970     0.11900
H902        H  0.83025142  0.99852662  0.48375417     0.11900
C903        C  0.67780649  0.04337267  0.54311389    -0.14200
C904        C  0.64647320  0.04674534  0.51578752     0.07900
C905        C  0.65079018  0.07191101  0.48237758    -0.14200
C906        C  0.68581783  0.09351795  0.47613531    -0.14200
C907        C  0.71780544  0.09064106  0.50335998     0.07900
C908        C  0.71275104  0.06546468  0.53727669    -0.14200
H909        H  0.67492058  0.02446668  0.56931255     0.11900
H910        H  0.62651263  0.07538138  0.46126401     0.11900
H911        H  0.68674307  0.11366127  0.45081993     0.11900
H912        H  0.73604295  0.06331216  0.55959925     0.11900
C913        C  0.18207730  0.55061312  0.78615217    -0.14200
C914        C  0.15100009  0.54585223  0.75812611     0.07900
C915        C  0.14585382  0.57722518  0.72975558    -0.14200
C916        C  0.17360890  0.60760152  0.72537104    -0.14200
C917        C  0.20601766  0.61027606  0.75125947     0.07900
C918        C  0.20930657  0.58223553  0.78265628    -0.14200
H919        H  0.18593363  0.52919980  0.81021840     0.11900
H920        H  0.12019006  0.57931989  0.71044722     0.11900
H921        H  0.16838704  0.63040594  0.70284731     0.11900
H922        H  0.23283517  0.58487213  0.80460635     0.11900
C923        C  0.18806013  0.46325913  0.75578871    -0.14200
C924        C  0.14615609  0.46803713  0.75379484     0.07900
C925        C  0.12294813  0.43303078  0.75283002    -0.14200
C926        C  0.14015486  0.39553805  0.75746377    -0.14200
C927        C  0.18130797  0.39120521  0.76278045     0.07900
C928        C  0.20529302  0.42527818  0.76107975    -0.14200
H929        H  0.20790251  0.48831344  0.75385219     0.11900
H930        H  0.09081047  0.43493293  0.75085491     0.11900
H931        H  0.12111331  0.36958223  0.75680937     0.11900
H932        H  0.23738233  0.42239518  0.76241743     0.11900
C933        C  0.05287940  0.51582059  0.72257210    -0.14200
C934        C  0.09487234  0.51068185  0.72173811     0.07900
C935        C  0.11295582  0.50949695  0.68369106    -0.14200
C936        C  0.09144075  0.51702835  0.64895041    -0.14200
C937        C  0.05033880  0.52432228  0.64999809     0.07900
C938        C  0.03102346  0.52314622  0.68711806    -0.14200
H939        H  0.03615286  0.51330151  0.74983346     0.11900
H940        H  0.14472526  0.50458992  0.68102749     0.11900
H941        H  0.10698933  0.51591528  0.62062773     0.11900
H942        H  0.99893008  0.52582968  0.68852084     0.11900
C943        C  0.11480606  0.47756173  0.82997304    -0.14200
C944        C  0.10240885  0.50599497  0.80066232     0.07900
C945        C  0.07175737  0.53225732  0.81218543    -0.14200
C946        C  0.04957355  0.52504601  0.84725597    -0.14200
C947        C  0.05946470  0.49315310  0.87322203     0.07900
C948        C  0.09330975  0.47068133  0.86472827    -0.14200
H949        H  0.14133660  0.45969833  0.82651840     0.11900
H950        H  0.06393158  0.55747396  0.79337144     0.11900
H951        H  0.02528654  0.54495580  0.85450664     0.11900
H952        H  0.10359079  0.44769757  0.88521959     0.11900
C953        C  0.22678441  0.65115994  0.93797965    -0.14200
C954        C  0.25409583  0.65337790  0.96968945     0.07900
C955        C  0.28601837  0.68080479  0.96578900    -0.14200
C956        C  0.29072206  0.70446154  0.93129753    -0.14200
C957        C  0.26297139  0.70208167  0.90027294     0.07900
C958        C  0.23080337  0.67553559  0.90436768    -0.14200
H959        H  0.20294505  0.62968526  0.93795504     0.11900
H960        H  0.30798526  0.68318709  0.98931620     0.11900
H961        H  0.31583254  0.72445192  0.92892413     0.11900
H962        H  0.20927562  0.67225831  0.88049548     0.11900
C963        C  0.21536428  0.55637139  0.01468523    -0.14200
C964        C  0.21481261  0.59815361  0.00825701     0.07900
C965        C  0.17757269  0.61755647  0.01132527    -0.14200
C966        C  0.14287913  0.59666850  0.02033390    -0.14200
C967        C  0.14357209  0.55523313  0.02603521     0.07900
C968        C  0.18010733  0.53518675  0.02249526    -0.14200
H969        H  0.24294328  0.53979120  0.01509845     0.11900
H970        H  0.17543928  0.64951865  0.00753113     0.11900
H971        H  0.11512694  0.61308454  0.02186950     0.11900
H972        H  0.18152063  0.50319153  0.02646110     0.11900
C973        C  0.32690080  0.60696280  0.02138346    -0.14200
C974        C  0.29168720  0.59917485  0.99981703     0.07900
C975        C  0.29471727  0.57325414  0.96672241    -0.14200
C976        C  0.33087972  0.55472918  0.95674344    -0.14200
C977        C  0.36547308  0.56333990  0.97825329     0.07900
C978        C  0.36307556  0.58941636  0.01062596    -0.14200
H979        H  0.32732762  0.62815784  0.04544649     0.11900
H980        H  0.26891601  0.56780494  0.94816431     0.11900
H981        H  0.33200720  0.53449213  0.93179394     0.11900
H982        H  0.38951234  0.59623634  0.02781066     0.11900
C983        C  0.25626083  0.62525113  0.08186231    -0.14200
C984        C  0.25180441  0.64691554  0.04586629     0.07900
C985        C  0.23721312  0.68647584  0.04842433    -0.14200
C986        C  0.22803470  0.70350962  0.08536526    -0.14200
C987        C  0.23324612  0.68172910  0.12088722     0.07900
C988        C  0.24763748  0.64245049  0.11863303    -0.14200
H989        H  0.26559862  0.59438062  0.08136445     0.11900
H990        H  0.23103461  0.70402659  0.02190263     0.11900
H991        H  0.21743900  0.73396277  0.08614051     0.11900
H992        H  0.25226049  0.62479156  0.14548778     0.11900
C993        C  0.75007857  0.36034248  0.07476589    -0.14200
C994        C  0.74732705  0.34274742  0.03687786     0.07900
C995        C  0.73473502  0.30247673  0.03523497    -0.14200
C996        C  0.72801479  0.28026058  0.07041992    -0.14200
C997        C  0.73231230  0.29827452  0.10769277     0.07900
C998        C  0.74269591  0.33857452  0.10935320    -0.14200
H999        H  0.75811985  0.39137319  0.07755473     0.11900
H1000       H  0.72949980  0.28802076  0.00704459     0.11900
H1001       H  0.72079371  0.24895098  0.06854587     0.11900
H1002       H  0.74687982  0.35292259  0.13792181     0.11900
C1003       C  0.79556459  0.42630288  0.97121145    -0.14200
C1004       C  0.79035755  0.39458588  0.99904690     0.07900
C1005       C  0.82389672  0.38196750  0.02091579    -0.14200
C1006       C  0.85997163  0.40182980  0.01737433    -0.14200
C1007       C  0.86439225  0.43500624  0.99166473     0.07900
C1008       C  0.83197588  0.44664332  0.96792537    -0.14200
H1009       H  0.77110807  0.43558098  0.95216999     0.11900
H1010       H  0.82292664  0.35604170  0.04025562     0.11900
H1011       H  0.88472539  0.39100719  0.03524416     0.11900
H1012       H  0.83450153  0.47170827  0.94754498     0.11900
C1013       C  0.67607927  0.37888780  0.99893985    -0.14200
C1014       C  0.71354923  0.39701311  0.00347388     0.07900
C1015       C  0.71419813  0.43692070  0.01696032    -0.14200
C1016       C  0.67864795  0.45847917  0.02242980    -0.14200
C1017       C  0.64180177  0.44043239  0.01527075     0.07900
C1018       C  0.64102169  0.40021519  0.00441225    -0.14200
H1019       H  0.67399711  0.34792383  0.99051342     0.11900
H1020       H  0.74191871  0.45159818  0.02375912     0.11900
H1021       H  0.68001777  0.48953186  0.03066607     0.11900
H1022       H  0.61295102  0.38547487  0.99880091     0.11900
C1023       C  0.29922940  0.92405911  0.79106903    -0.14200
C1024       C  0.31111770  0.88901282  0.77211427     0.07900
C1025       C  0.34158659  0.89091772  0.74358579    -0.14200
C1026       C  0.35959091  0.92706434  0.73355827    -0.14200
C1027       C  0.34816088  0.96282831  0.75222840     0.07900
C1028       C  0.31858822  0.96017160  0.78234176    -0.14200
H1029       H  0.27585450  0.92330808  0.81328406     0.11900
H1030       H  0.35126158  0.86417614  0.72852721     0.11900
H1031       H  0.38373096  0.92633560  0.71227105     0.11900
H1032       H  0.31046724  0.98629374  0.79920758     0.11900
C1033       C  0.34329776  0.11200462  0.73004661    -0.14200
C1034       C  0.30209875  0.11072969  0.72319899     0.07900
C1035       C  0.28306829  0.07360257  0.72465461    -0.14200
C1036       C  0.30476817  0.03854685  0.73266389    -0.14200
C1037       C  0.34602384  0.03974973  0.74155059     0.07900
C1038       C  0.36469771  0.07734297  0.73917076    -0.14200
H1039       H  0.35893925  0.14012437  0.72967072     0.11900
H1040       H  0.25132944  0.07163023  0.71925747     0.11900
H1041       H  0.28901338  0.01069484  0.73079729     0.11900
H1042       H  0.39643521  0.07986394  0.74423565     0.11900
C1043       C  0.42827563  0.97124481  0.79009762    -0.14200
C1044       C  0.39973518  0.00206099  0.78410660     0.07900
C1045       C  0.39430574  0.02928409  0.81529728    -0.14200
C1046       C  0.41694881  0.02648906  0.85019270    -0.14200
C1047       C  0.44495137  0.99565228  0.85609320     0.07900
C1048       C  0.45025705  0.96781226  0.82575450    -0.14200
H1049       H  0.43307781  0.94925204  0.76719541     0.11900
H1050       H  0.37167127  0.05215644  0.81381175     0.11900
H1051       H  0.41137562  0.04796894  0.87347916     0.11900
H1052       H  0.47139335  0.94366376  0.82948343     0.11900
C1053       C  0.37722360  0.99582555  0.67095812    -0.14200
C1054       C  0.39715335  0.00230781  0.70736701     0.07900
C1055       C  0.43682874  0.01643886  0.70545136    -0.14200
C1056       C  0.45588646  0.02260930  0.66861235    -0.14200
C1057       C  0.43588587  0.01499068  0.63271458     0.07900
C1058       C  0.39631031  0.00159311  0.63445337    -0.14200
H1059       H  0.34635315  0.98665594  0.67084136     0.11900
H1060       H  0.45298758  0.02409248  0.73222358     0.11900
H1061       H  0.48647714  0.03265186  0.66825836     0.11900
H1062       H  0.37989791  0.99533765  0.60736454     0.11900
C1063       C  0.42743249  0.72834539  0.14104862    -0.14200
C1064       C  0.45985888  0.75320396  0.14982305     0.07900
C1065       C  0.45342711  0.78380190  0.17812828    -0.14200
C1066       C  0.41647014  0.78892780  0.19713390    -0.14200
C1067       C  0.38425814  0.76449597  0.18742436     0.07900
C1068       C  0.39051953  0.73394702  0.15940662    -0.14200
H1069       H  0.42955759  0.70558096  0.11857152     0.11900
H1070       H  0.47713934  0.80440454  0.18495118     0.11900
H1071       H  0.41288733  0.81252869  0.21863179     0.11900
H1072       H  0.36656176  0.71412460  0.15121813     0.11900
C1073       C  0.50480916  0.67738503  0.11502461    -0.14200
C1074       C  0.50302736  0.71559506  0.09718119     0.07900
C1075       C  0.51077695  0.71796863  0.05550749    -0.14200
C1076       C  0.51803318  0.68362378  0.03282554    -0.14200
C1077       C  0.52000904  0.64597317  0.05122637     0.07900
C1078       C  0.51348496  0.64344548  0.09264711    -0.14200
H1079       H  0.50005573  0.67391294  0.14684473     0.11900
H1080       H  0.51238287  0.74623535  0.04002691     0.11900
H1081       H  0.52281390  0.68659803  0.00096145     0.11900
H1082       H  0.51399908  0.61481562  0.10778926     0.11900
C1083       C  0.46340078  0.79646046  0.07209306    -0.14200
C1084       C  0.49514450  0.79210701  0.09988938     0.07900
C1085       C  0.51844906  0.82606464  0.10751840    -0.14200
C1086       C  0.51073298  0.86223598  0.08767637    -0.14200
C1087       C  0.47978134  0.86567550  0.05954617     0.07900
C1088       C  0.45637678  0.83240706  0.05160466    -0.14200
H1089       H  0.44382007  0.77164471  0.06627431     0.11900
H1090       H  0.54179705  0.82545772  0.12974851     0.11900
H1091       H  0.52915509  0.88777423  0.09425879     0.11900
H1092       H  0.43231504  0.83439147  0.03011604     0.11900
C1093       C  0.66731741  0.89952118  0.02654682    -0.14200
C1094       C  0.70216335  0.90616821  0.00405145     0.07900
C1095       C  0.70016798  0.93479082  0.97265875    -0.14200
C1096       C  0.66516666  0.95645886  0.96476731    -0.14200
C1097       C  0.63083964  0.94886169  0.98706049     0.07900
C1098       C  0.63231313  0.92049330  0.01803848    -0.14200
H1099       H  0.66612098  0.87692907  0.04968529     0.11900
H1100       H  0.72582130  0.93989904  0.95377905     0.11900
H1101       H  0.66460680  0.97821247  0.94070380     0.11900
H1102       H  0.60596498  0.91430246  0.03565268     0.11900
C1103       C  0.81709872  0.96382601  0.02789454    -0.14200
C1104       C  0.85260498  0.94176386  0.02837185     0.07900
C1105       C  0.85074338  0.90042386  0.02390934    -0.14200
C1106       C  0.81467802  0.88151412  0.01725336    -0.14200
C1107       C  0.77865810  0.90314128  0.01434624     0.07900
C1108       C  0.78037237  0.94466104  0.02158191    -0.14200
H1109       H  0.81790027  0.99588822  0.03066240     0.11900
H1110       H  0.87780674  0.88276280  0.02359127     0.11900
H1111       H  0.81495967  0.84957623  0.01326331     0.11900
H1112       H  0.75370319  0.96265439  0.02237212     0.11900
C1113       C  0.73880303  0.86998251  0.08361716    -0.14200
C1114       C  0.73871476  0.85174561  0.04586376     0.07900
C1115       C  0.74659326  0.81026112  0.04461032    -0.14200
C1116       C  0.75526040  0.78855176  0.07952727    -0.14200
C1117       C  0.75770803  0.80778910  0.11636785     0.07900
C1118       C  0.74871414  0.84858961  0.11804995    -0.14200
H1119       H  0.73343690  0.90167164  0.08606882     0.11900
H1120       H  0.74845503  0.79446574  0.01677144     0.11900
H1121       H  0.76119358  0.75693295  0.07755051     0.11900
H1122       H  0.74893247  0.86412212  0.14625159     0.11900
C1123       C  0.70890853  0.92225922  0.26515312    -0.14200
C1124       C  0.68836385  0.88614123  0.26798267     0.07900
C1125       C  0.64718135  0.88609385  0.26059423    -0.14200
C1126       C  0.62699421  0.92129445  0.25084261    -0.14200
C1127       C  0.64698035  0.95817209  0.24894420     0.07900
C1128       C  0.68855513  0.95778769  0.25655454    -0.14200
H1129       H  0.74072852  0.92315865  0.27029878     0.11900
H1130       H  0.63051089  0.85856849  0.26155818     0.11900
H1131       H  0.59510158  0.92005766  0.24628077     0.11900
H1132       H  0.70566391  0.98485870  0.25785672     0.11900
C1133       C  0.91035175  0.79173684  0.30963487    -0.14200
C1134       C  0.89472170  0.75797973  0.29134014     0.07900
C1135       C  0.91544599  0.72161193  0.29585998    -0.14200
C1136       C  0.94876120  0.71843611  0.32102224    -0.14200
C1137       C  0.96139504  0.75105441  0.34383541     0.07900
C1138       C  0.94348327  0.78849786  0.33483586    -0.14200
H1139       H  0.89588351  0.82039768  0.30605444     0.11900
H1140       H  0.90486023  0.69501848  0.28128226     0.11900
H1141       H  0.96359966  0.68991948  0.32407771     0.11900
H1142       H  0.95446764  0.81577389  0.34759441     0.11900
C1143       C  0.79210724  0.57812221  0.21856333    -0.14200
C1144       C  0.78876811  0.60385886  0.25097350     0.07900
C1145       C  0.80712196  0.59285007  0.28745349    -0.14200
C1146       C  0.83140527  0.55922532  0.29043149    -0.14200
C1147       C  0.83811153  0.53536381  0.25696244     0.07900
C1148       C  0.81544978  0.54359262  0.22197583    -0.14200
H1149       H  0.77790897  0.58530496  0.19033468     0.11900
H1150       H  0.80450202  0.61141539  0.31358638     0.11900
H1151       H  0.84533935  0.55272789  0.31885771     0.11900
H1152       H  0.81845619  0.52473682  0.19609123     0.11900
C1153       C  0.60937353  0.74291034  0.15434674    -0.14200
C1154       C  0.60837283  0.73341020  0.19534373     0.07900
C1155       C  0.57129490  0.73300497  0.21457168    -0.14200
C1156       C  0.53600309  0.74045163  0.19293798    -0.14200
C1157       C  0.53681946  0.75042345  0.15160140     0.07900
C1158       C  0.57448955  0.75158585  0.13308558    -0.14200
H1159       H  0.63747823  0.74442879  0.13860674     0.11900
H1160       H  0.56950299  0.72607840  0.24616986     0.11900
H1161       H  0.50825725  0.73689374  0.20876428     0.11900
H1162       H  0.57677373  0.75816703  0.10144669     0.11900
C1163       C  0.69504428  0.57977272  0.52662169    -0.14200
C1164       C  0.71035193  0.60541762  0.49683219     0.07900
C1165       C  0.69295291  0.60222626  0.45807216    -0.14200
C1166       C  0.65913858  0.57922711  0.45098256    -0.14200
C1167       C  0.64299447  0.55565758  0.48127887     0.07900
C1168       C  0.66192398  0.55524916  0.51894298    -0.14200
H1169       H  0.70856793  0.57889137  0.55598478     0.11900
H1170       H  0.70527060  0.61727307  0.43229451     0.11900
H1171       H  0.64571913  0.57963425  0.42153572     0.11900
H1172       H  0.65007453  0.53710817  0.54300352     0.11900
C1173       C  0.79977433  0.59194921  0.54752314    -0.14200
C1174       C  0.78333089  0.60062372  0.50922137     0.07900
C1175       C  0.79757663  0.57769980  0.47713322    -0.14200
C1176       C  0.83085080  0.55249935  0.48198714    -0.14200
C1177       C  0.84994155  0.54863775  0.51933603     0.07900
C1178       C  0.83321345  0.56761763  0.55219019    -0.14200
H1179       H  0.78762126  0.60470088  0.57441588     0.11900
H1180       H  0.78409694  0.58065177  0.44786281     0.11900
H1181       H  0.84296865  0.53776409  0.45605215     0.11900
H1182       H  0.84656484  0.56429178  0.58151313     0.11900
C1183       C  0.78482331  0.66465816  0.44346830    -0.14200
C1184       C  0.75180780  0.66156386  0.46893621     0.07900
C1185       C  0.71908258  0.68756258  0.46157929    -0.14200
C1186       C  0.71641014  0.71016189  0.42640272    -0.14200
C1187       C  0.74766132  0.70966536  0.39901189     0.07900
C1188       C  0.78270532  0.68836862  0.40897379    -0.14200
H1189       H  0.81202476  0.64843409  0.44937608     0.11900
H1190       H  0.69382861  0.68755476  0.48164942     0.11900
H1191       H  0.68949922  0.72691164  0.42008399     0.11900
H1192       H  0.80798012  0.68822151  0.38893596     0.11900
C1193       C  0.62914431  0.52414381  0.81260350    -0.14200
C1194       C  0.60843513  0.52356983  0.77592694     0.07900
C1195       C  0.56778555  0.53543771  0.77658451    -0.14200
C1196       C  0.54809908  0.54341701  0.81274282    -0.14200
C1197       C  0.56864205  0.54081341  0.84911329     0.07900
C1198       C  0.60956895  0.53210626  0.84841238    -0.14200
H1199       H  0.66066104  0.51733754  0.81359037     0.11900
H1200       H  0.55081769  0.53880716  0.74932799     0.11900
H1201       H  0.51644471  0.54959373  0.81240925     0.11900
H1202       H  0.62615561  0.52953623  0.87610624     0.11900
C1203       C  0.61208324  0.53089641  0.66316725    -0.14200
C1204       C  0.60450811  0.51197185  0.70008413     0.07900
C1205       C  0.57490300  0.48191471  0.70102593    -0.14200
C1206       C  0.55320272  0.47184225  0.66686312    -0.14200
C1207       C  0.56190536  0.49008596  0.63032533     0.07900
C1208       C  0.59125826  0.51980497  0.62879511    -0.14200
H1209       H  0.63539429  0.55282606  0.66014575     0.11900
H1210       H  0.56915639  0.46554074  0.72841298     0.11900
H1211       H  0.53054658  0.44905872  0.66872807     0.11900
H1212       H  0.59803155  0.53460638  0.60074100     0.11900
C1213       C  0.64919243  0.44647197  0.76419060    -0.14200
C1214       C  0.65620035  0.47681721  0.73604648     0.07900
C1215       C  0.68085420  0.46741705  0.70287058    -0.14200
C1216       C  0.69737938  0.42914719  0.69804323    -0.14200
C1217       C  0.68954783  0.39914632  0.72622671     0.07900
C1218       C  0.66569745  0.40884080  0.75954598    -0.14200
H1219       H  0.62922702  0.45054952  0.78905633     0.11900
H1220       H  0.68637396  0.48966506  0.67996231     0.11900
H1221       H  0.71567259  0.42299163  0.67223109     0.11900
H1222       H  0.65861425  0.38684402  0.78226886     0.11900
C1223       C  0.78496395  0.29724662  0.91733954    -0.14200
C1224       C  0.76207042  0.31018152  0.88470488     0.07900
C1225       C  0.73652653  0.34311143  0.88964316    -0.14200
C1226       C  0.73206614  0.36130294  0.92634856    -0.14200
C1227       C  0.75297654  0.34741627  0.96005984     0.07900
C1228       C  0.78096735  0.31618173  0.95445140    -0.14200
H1229       H  0.80527643  0.27237011  0.91438777     0.11900
H1230       H  0.71938451  0.35505074  0.86481801     0.11900
H1231       H  0.71284026  0.38711936  0.92763763     0.11900
H1232       H  0.79949786  0.30620213  0.97908070     0.11900
C1233       C  0.56482692  0.20822544  0.79529296    -0.14200
C1234       C  0.59762956  0.23264068  0.80327585     0.07900
C1235       C  0.59345813  0.26176865  0.83312074    -0.14200
C1236       C  0.55764487  0.26840109  0.85238688    -0.14200
C1237       C  0.52372739  0.24591041  0.84338540     0.07900
C1238       C  0.52859130  0.21419060  0.81592002    -0.14200
H1239       H  0.56701361  0.18502600  0.77319719     0.11900
H1240       H  0.61823917  0.28030705  0.84190441     0.11900
H1241       H  0.55745987  0.29058590  0.87553443     0.11900
H1242       H  0.50396728  0.19437482  0.81002523     0.11900
C1243       C  0.87698548  0.23387363  0.65755099    -0.14200
C1244       C  0.87679977  0.26256574  0.68767075     0.07900
C1245       C  0.91193172  0.28238780  0.69717598    -0.14200
C1246       C  0.94669506  0.27437101  0.67567210    -0.14200
C1247       C  0.94751045  0.24512511  0.64539317     0.07900
C1248       C  0.91178467  0.22511283  0.63671931    -0.14200
H1249       H  0.84985231  0.21829297  0.64994047     0.11900
H1250       H  0.91221630  0.30465710  0.72034335     0.11900
H1251       H  0.97310998  0.29152233  0.68218390     0.11900
H1252       H  0.90986759  0.20401534  0.61263881     0.11900
C1253       C  0.70617530  0.19367850  0.57205467    -0.14200
C1254       C  0.73231865  0.19431392  0.60446576     0.07900
C1255       C  0.76728947  0.17119678  0.60295421    -0.14200
C1256       C  0.77578338  0.14721454  0.56988866    -0.14200
C1257       C  0.74972013  0.14625019  0.53685506     0.07900
C1258       C  0.71483286  0.17020622  0.53872953    -0.14200
H1259       H  0.67887706  0.21088348  0.57270112     0.11900
H1260       H  0.78766458  0.17089413  0.62808111     0.11900
H1261       H  0.80213729  0.12874627  0.57112432     0.11900
H1262       H  0.69370981  0.17013396  0.51428114     0.11900
C1263       C  0.91129989  0.04035403  0.67695569    -0.14200
C1264       C  0.90554024  0.00969648  0.70524382     0.07900
C1265       C  0.92757628  0.97388243  0.70035436    -0.14200
C1266       C  0.95041811  0.96706411  0.66635045    -0.14200
C1267       C  0.95340732  0.99647397  0.63701006     0.07900
C1268       C  0.93487545  0.03361090  0.64303717    -0.14200
H1269       H  0.89712321  0.06903506  0.68020103     0.11900
H1270       H  0.92478886  0.94981690  0.72188567     0.11900
H1271       H  0.96490252  0.93850756  0.66252067     0.11900
H1272       H  0.93750789  0.05695969  0.62068153     0.11900
C1273       C  0.92846313  0.03836776  0.78805243    -0.14200
C1274       C  0.90280985  0.00659313  0.77749515     0.07900
C1275       C  0.90340059  0.97240263  0.80188191    -0.14200
C1276       C  0.92415590  0.97217743  0.83797451    -0.14200
C1277       C  0.94529609  0.00595139  0.85098064     0.07900
C1278       C  0.94850494  0.03856746  0.82487566    -0.14200
H1279       H  0.93038745  0.06450002  0.76897391     0.11900
H1280       H  0.88753906  0.94578795  0.79369975     0.11900
H1281       H  0.92237913  0.94558388  0.85639595     0.11900
H1282       H  0.96532460  0.06459199  0.83336344     0.11900
C1283       C  0.82556921  0.06395728  0.71334317    -0.14200
C1284       C  0.84944780  0.04937709  0.74501403     0.07900
C1285       C  0.84273106  0.06622137  0.78330371    -0.14200
C1286       C  0.81731717  0.09854539  0.78863084    -0.14200
C1287       C  0.79550017  0.11392864  0.75662656     0.07900
C1288       C  0.79917953  0.09596978  0.71900144    -0.14200
H1289       H  0.82721727  0.05043866  0.68417395     0.11900
H1290       H  0.85625042  0.05423899  0.81011875     0.11900
H1291       H  0.81459708  0.11153988  0.81800206     0.11900
H1292       H  0.78266964  0.10761044  0.69362088     0.11900
C1293       C  0.72323210  0.58597678  0.75206826    -0.14200
C1294       C  0.70393699  0.62291290  0.75446826     0.07900
C1295       C  0.66345056  0.62531923  0.74420379    -0.14200
C1296       C  0.64215159  0.59143411  0.73372488    -0.14200
C1297       C  0.66006768  0.55344640  0.73473625     0.07900
C1298       C  0.70146475  0.55149275  0.74318779    -0.14200
H1299       H  0.75470509  0.58353261  0.75871272     0.11900
H1300       H  0.64807935  0.65372847  0.74413679     0.11900
H1301       H  0.61063542  0.59449312  0.72754149     0.11900
H1302       H  0.71697193  0.52335474  0.74538133     0.11900
C1303       C  0.72351910  0.68972539  0.60122698    -0.14200
C1304       C  0.76037181  0.70829686  0.60871535     0.07900
C1305       C  0.79111006  0.70390620  0.58129207    -0.14200
C1306       C  0.78544455  0.68090072  0.54729382    -0.14200
C1307       C  0.74956523  0.65956606  0.54055861     0.07900
C1308       C  0.71811585  0.66542700  0.56758187    -0.14200
H1309       H  0.69928257  0.69296822  0.62224965     0.11900
H1310       H  0.81965037  0.71789592  0.58637669     0.11900
H1311       H  0.81020621  0.67790381  0.52685732     0.11900
H1312       H  0.68964538  0.65125824  0.56315281     0.11900
C1313       C  0.61247110  0.73291344  0.67535917    -0.14200
C1314       C  0.61328100  0.76469208  0.70227845     0.07900
C1315       C  0.57883213  0.78672844  0.70899960    -0.14200
C1316       C  0.54422317  0.77799892  0.68768426    -0.14200
C1317       C  0.54286300  0.74633110  0.65986523     0.07900
C1318       C  0.57775693  0.72372207  0.65437424    -0.14200
H1319       H  0.63922363  0.71571834  0.66985039     0.11900
H1320       H  0.57906343  0.81140012  0.72957382     0.11900
H1321       H  0.51841196  0.79682955  0.69205376     0.11900
H1322       H  0.57924359  0.70037853  0.63245545     0.11900
C1323       C  0.83834315  0.95847145  0.69680085    -0.14200
C1324       C  0.84443012  0.97728114  0.73427005     0.07900
C1325       C  0.81845664  0.96652451  0.76545161    -0.14200
C1326       C  0.79314926  0.93383869  0.76170456    -0.14200
C1327       C  0.79183222  0.91178402  0.72615377     0.07900
C1328       C  0.81297718  0.92570908  0.69305826    -0.14200
H1329       H  0.85399654  0.96797068  0.67021812     0.11900
H1330       H  0.81962684  0.98183451  0.79373195     0.11900
H1331       H  0.77658631  0.92397840  0.78769658     0.11900
H1332       H  0.81224202  0.90959376  0.66520799     0.11900
C1333       C  0.76829308  0.83936551  0.90448986    -0.14200
C1334       C  0.73714851  0.81287873  0.89545513     0.07900
C1335       C  0.70671121  0.80770686  0.92360325    -0.14200
C1336       C  0.70782793  0.82864991  0.95986053    -0.14200
C1337       C  0.73965001  0.85480715  0.96907154     0.07900
C1338       C  0.76913776  0.86033634  0.93988982    -0.14200
H1339       H  0.79214535  0.84512447  0.88352005     0.11900
H1340       H  0.68196872  0.78813301  0.91742776     0.11900
H1341       H  0.68377479  0.82450301  0.98095899     0.11900
H1342       H  0.79273989  0.88176852  0.94322752     0.11900
C1343       C  0.92637480  0.71603840  0.79683277    -0.14200
C1344       C  0.90177637  0.74969999  0.79705024     0.07900
C1345       C  0.91470064  0.78349338  0.81822101    -0.14200
C1346       C  0.94873787  0.78227584  0.84208792    -0.14200
C1347       C  0.97109303  0.74707572  0.84579170     0.07900
C1348       C  0.96124902  0.71523917  0.81996385    -0.14200
H1349       H  0.91795403  0.68990310  0.78019181     0.11900
H1350       H  0.89755222  0.81084274  0.81775167     0.11900
H1351       H  0.95695462  0.80897160  0.85776117     0.11900
H1352       H  0.97916291  0.68838415  0.82013051     0.11900
loop_ 
_geom_bond_atom_site_label_1 
_geom_bond_atom_site_label_2 
_geom_bond_distance 
_geom_bond_site_symmetry_2 
_ccdc_geom_bond_type 
Zn1           O5   1.879       .  S
Zn1           O6   1.909       .  S
Zn1          O10   1.922       .  S
Zn1          O17   1.926       .  S
Zn2           O5   1.980       .  S
Zn2           O7   2.010       .  S
Zn2           O9   2.109       .  S
Zn2          O13   2.007       .  S
Zn3           O5   1.967       .  S
Zn3           O8   2.106       .  S
Zn3          O11   2.003       .  S
Zn3          O14   2.022       .  S
Zn4           O5   1.983       .  S
Zn4          O12   2.041       .  S
Zn4          O15   2.039       .  S
Zn4          O16   2.111       .  S
O6           C18   1.259       .  A
O7           C19   1.272       .  A
O8           C20   1.282       .  A
O9           C18   1.280       .  A
O10          C20   1.260       .  A
O11          C19   1.273       .  A
O12          C21   1.277       .  A
O13          C22   1.276       .  A
O14          C21   1.274       .  A
O15          C22   1.277       .  A
O16          C23   1.284       .  A
O17          C23   1.262       .  A
C18        C1334   1.490       .  S
C19        C1314   1.464       .  S
C20        C1327   1.477       .  S
C21        C1304   1.478       .  S
C22        C1294   1.481       .  S
C23        C1344   1.489       .  S
C24        C1264   1.549       .  S
C24        C1274   1.555       .  S
C24        C1284   1.560       .  S
C24        C1324   1.560   1_545  S
Zn25         O29   1.990       .  S
Zn25         O30   2.027       .  S
Zn25         O34   2.034       .  S
Zn25         O41   2.150       .  S
Zn26         O29   1.987       .  S
Zn26         O31   2.017       .  S
Zn26         O33   2.015       .  S
Zn26         O37   2.105       .  S
Zn27         O29   1.980       .  S
Zn27         O32   2.046       .  S
Zn27         O35   2.009       .  S
Zn27         O38   2.137       .  S
Zn28         O29   1.853       .  S
Zn28         O36   1.891       .  S
Zn28         O39   1.900       .  S
Zn28         O40   1.882       .  S
O30          C42   1.276       .  A
O31          C43   1.274       .  A
O32          C44   1.278       .  A
O33          C42   1.276       .  A
O34          C44   1.277       .  A
O35          C43   1.274       .  A
O36          C45   1.256       .  A
O37          C46   1.278       .  A
O38          C45   1.284       .  A
O39          C46   1.257       .  A
O40          C47   1.256       .  A
O41          C47   1.284       .  A
C42        C1287   1.475       .  S
C43        C1244   1.465       .  S
C44        C1254   1.481       .  S
C45        C1217   1.495       .  S
C46        C1224   1.484       .  S
C47        C1234   1.496       .  S
C48        C1194   1.565       .  S
C48        C1204   1.548       .  S
C48        C1214   1.554       .  S
C48        C1297   1.552       .  S
C49        C1164   1.570       .  S
C49        C1174   1.565       .  S
C49        C1184   1.552       .  S
C49        C1307   1.556       .  S
Zn50         O54   1.847       .  S
Zn50         O55   1.943       .  S
Zn50         O59   1.969       .  S
Zn50         O66   1.938       .  S
Zn51         O54   1.932       .  S
Zn51         O56   2.015       .  S
Zn51         O58   2.103       .  S
Zn51         O62   2.065       .  S
Zn52         O54   1.922       .  S
Zn52         O57   2.095       .  S
Zn52         O60   2.030       .  S
Zn52         O63   1.997       .  S
Zn53         O54   1.929       .  S
Zn53         O61   2.033       .  S
Zn53         O64   2.018       .  S
Zn53         O65   2.105       .  S
O55          C67   1.265       .  A
O56          C68   1.276       .  A
O57          C69   1.283       .  A
O58          C67   1.286       .  A
O59          C69   1.266       .  A
O60          C68   1.278       .  A
O61          C70   1.279       .  A
O62          C71   1.281       .  A
O63          C70   1.276       .  A
O64          C71   1.277       .  A
O65          C72   1.284       .  A
O66          C72   1.264       .  A
C67        C1187   1.482       .  S
C68        C1124   1.483       .  S
C69        C1134   1.489       .  S
C70        C1117   1.479       .  S
C71        C1154   1.493       .  S
C72        C1144   1.485       .  S
C73        C1094   1.550       .  S
C73        C1107   1.561       .  S
C73        C1114   1.552       .  S
C73        C1337   1.553   1_554  S
C74        C1064   1.557       .  S
C74        C1074   1.567       .  S
C74        C1084   1.557       .  S
C74        C1157   1.563       .  S
C75        C1027   1.557   1_545  S
C75        C1037   1.562       .  S
C75        C1044   1.554       .  S
C75        C1054   1.551       .  S
C76         C994   1.550   1_556  S
C76        C1004   1.548       .  S
C76        C1014   1.553   1_556  S
C76        C1227   1.545       .  S
C77         C954   1.551   1_554  S
C77         C964   1.561       .  S
C77         C974   1.555   1_554  S
C77         C984   1.551       .  S
C78         C914   1.568       .  S
C78         C924   1.563       .  S
C78         C934   1.569       .  S
C78         C944   1.570       .  S
C79         C884   1.562       .  S
C79         C894   1.563       .  S
C79         C907   1.556       .  S
C79        C1257   1.559       .  S
C80         C854   1.566   1_655  S
C80         C864   1.554       .  S
C80         C874   1.552       .  S
C80        C1137   1.559       .  S
Zn81         O85   1.938       .  S
Zn81         O86   2.055       .  S
Zn81         O90   2.130       .  S
Zn81         O97   2.043       .  S
Zn82         O85   1.921       .  S
Zn82         O87   2.093       .  S
Zn82         O89   2.011       .  S
Zn82         O93   2.031       .  S
Zn83         O85   1.851       .  S
Zn83         O88   1.945       .  S
Zn83         O91   1.958       .  S
Zn83         O94   1.938       .  S
Zn84         O85   1.951       .  S
Zn84         O92   2.132       .  S
Zn84         O95   2.049       .  S
Zn84         O96   2.074       .  S
O86          C98   1.280       .  A
O87          C99   1.282       .  A
O88         C100   1.265       .  A
O89          C98   1.277       .  A
O90         C100   1.286       .  A
O91          C99   1.266       .  A
O92         C101   1.283       .  A
O93         C102   1.277       .  A
O94         C101   1.261       .  A
O95         C102   1.281       .  A
O96         C103   1.284       .  A
O97         C103   1.281       .  A
C98         C844   1.486       .  S
C99         C987   1.483       .  S
C100       C1067   1.495       .  S
C101        C834   1.491       .  S
C102        C857   1.483       .  S
C103        C824   1.486       .  S
C104        C794   1.558       .  S
C104        C804   1.552       .  S
C104        C814   1.548       .  S
C104        C827   1.560       .  S
C105        C764   1.562       .  S
C105        C774   1.563       .  S
C105        C784   1.554       .  S
C105       C1147   1.547       .  S
Zn106       O110   1.889       .  S
Zn106       O111   1.920       .  S
Zn106       O115   1.916       .  S
Zn106       O122   1.923       .  S
Zn107       O110   1.981       .  S
Zn107       O112   2.020       .  S
Zn107       O114   2.114       .  S
Zn107       O118   2.048       .  S
Zn108       O110   1.982       .  S
Zn108       O113   2.085       .  S
Zn108       O116   2.033       .  S
Zn108       O119   2.015       .  S
Zn109       O110   1.979       .  S
Zn109       O117   2.057       .  S
Zn109       O120   2.027       .  S
Zn109       O121   2.141       .  S
O111        C123   1.260       .  A
O112        C124   1.273       .  A
O113        C125   1.278       .  A
O114        C123   1.283       .  A
O115        C125   1.260       .  A
O116        C124   1.274       .  A
O117        C126   1.280       .  A
O118        C127   1.280       .  A
O119        C126   1.275       .  A
O120        C127   1.278       .  A
O121        C128   1.285       .  A
O122        C128   1.260       .  A
C123        C787   1.491       .  S
C124        C744   1.474       .  S
C125        C997   1.467       .  S
C126        C737   1.476       .  S
C127        C887   1.491       .  S
C128        C754   1.488       .  S
C129        C714   1.559       .  S
C129        C724   1.558   1_565  S
C129        C734   1.555   1_565  S
C129       C1127   1.559       .  S
C130        C684   1.561       .  S
C130        C694   1.555       .  S
C130        C704   1.558       .  S
C130       C1237   1.556       .  S
Zn131       O135   1.970       .  S
Zn131       O136   2.049       .  S
Zn131       O140   2.103       .  S
Zn131       O147   2.005       .  S
Zn132       O135   1.980       .  S
Zn132       O137   2.102       .  S
Zn132       O139   2.022       .  S
Zn132       O143   2.039       .  S
Zn133       O135   1.896       .  S
Zn133       O138   1.939       .  S
Zn133       O141   1.920       .  S
Zn133       O144   1.910       .  S
Zn134       O135   1.992       .  S
Zn134       O142   2.112       .  S
Zn134       O145   2.035       .  S
Zn134       O146   2.055       .  S
O136        C148   1.279       .  A
O137        C149   1.280       .  A
O138        C150   1.262       .  A
O139        C148   1.277       .  A
O140        C150   1.281       .  A
O141        C149   1.260       .  A
O142        C151   1.283       .  A
O143        C152   1.277       .  A
O144        C151   1.260       .  A
O145        C152   1.278       .  A
O146        C153   1.279       .  A
O147        C153   1.274       .  A
C148        C674   1.490       .  S
C149        C654   1.472       .  S
C150        C927   1.477       .  S
C151        C664   1.486       .  S
C152       C1034   1.489       .  S
C153        C707   1.489       .  S
C154        C634   1.546       .  S
C154        C647   1.545       .  S
C154        C657   1.560   1_655  S
C154       C1247   1.544       .  S
C155        C604   1.553       .  S
C155        C614   1.548       .  S
C155        C624   1.551       .  S
C155        C757   1.563   1_455  S
Zn156       O160   1.973   1_454  S
Zn156       O161   2.109   1_554  S
Zn156       O165   2.009       .  S
Zn156       O172   2.040   1_554  S
Zn157       O160   1.893       .  S
Zn157       O162   1.936       .  S
Zn157       O164   1.940       .  S
Zn157       O168   1.940       .  S
Zn158       O160   1.970   1_544  S
Zn158       O163   2.034   1_645  S
Zn158       O166   2.100   1_545  S
Zn158       O169   2.003       .  S
Zn159       O160   1.980   1_445  S
Zn159       O167   2.046   1_455  S
Zn159       O170   2.103   1_455  S
Zn159       O171   2.015       .  S
O161        C173   1.283       .  A
O162        C174   1.263   1_556  A
O163        C175   1.277       .  A
O164        C173   1.263   1_655  A
O165        C175   1.275       .  A
O166        C174   1.281       .  A
O167        C176   1.277   1_556  A
O168        C177   1.265   1_565  A
O169        C176   1.274       .  A
O170        C177   1.284       .  A
O171        C178   1.274       .  A
O172        C178   1.278   1_565  A
C173        C574   1.485       .  S
C174       C1104   1.475       .  S
C175        C594   1.484       .  S
C176        C627   1.485       .  S
C177       C1277   1.489       .  S
C178        C584   1.488       .  S
Zn179       O183   1.974       .  S
Zn179       O184   2.039       .  S
Zn179       O188   2.127       .  S
Zn179       O195   2.023       .  S
Zn180       O183   1.980       .  S
Zn180       O185   2.135       .  S
Zn180       O187   2.046       .  S
Zn180       O191   2.036       .  S
Zn181       O183   1.895       .  S
Zn181       O186   1.941       .  S
Zn181       O189   1.915       .  S
Zn181       O192   1.927       .  S
Zn182       O183   1.990       .  S
Zn182       O190   2.103       .  S
Zn182       O193   2.039       .  S
Zn182       O194   2.029       .  S
O184        C196   1.277       .  A
O185        C197   1.285       .  A
O186        C198   1.263       .  A
O187        C196   1.279       .  A
O188        C198   1.284       .  A
O189        C197   1.259       .  A
O190        C199   1.282       .  A
O191        C200   1.275       .  A
O192        C199   1.262       .  A
O193        C200   1.276       .  A
O194        C201   1.275       .  A
O195        C201   1.275       .  A
C196        C567   1.482       .  S
C197        C547   1.482       .  S
C198        C524   1.488       .  S
C199        C534   1.488       .  S
C200        C554   1.478       .  S
C201        C617   1.476       .  S
C202        C517   1.550       .  S
C202        C557   1.556       .  S
C202        C597   1.557       .  S
C202        C847   1.564   1_545  S
Zn203       O207   1.856       .  S
Zn203       O208   1.884       .  S
Zn203       O212   1.896       .  S
Zn203       O219   1.897       .  S
Zn204       O207   1.983   1_645  S
Zn204       O209   2.019       .  S
Zn204       O211   2.116   1_655  S
Zn204       O215   2.015   1_655  S
Zn205       O207   1.984   1_655  S
Zn205       O210   2.130       .  S
Zn205       O213   2.043       .  S
Zn205       O216   2.043       .  S
Zn206       O207   1.970   1_545  S
Zn206       O214   2.006       .  S
Zn206       O217   1.989       .  S
Zn206       O218   2.113   1_545  S
O208        C220   1.257   1_565  A
O209        C221   1.277       .  A
O210        C222   1.284       .  A
O211        C220   1.281       .  A
O212        C222   1.257   1_455  A
O213        C221   1.278   1_565  A
O214        C223   1.272   1_445  A
O215        C224   1.274       .  A
O216        C223   1.279       .  A
O217        C224   1.274       .  A
O218        C225   1.279       .  A
O219        C225   1.256       .  A
C220        C514   1.488       .  S
C221        C897   1.486       .  S
C222        C877   1.490       .  S
C223       C1267   1.471       .  S
C224        C644   1.469       .  S
C225        C807   1.476       .  S
C226        C504   1.555       .  S
C226        C564   1.557   1_556  S
C226        C587   1.561       .  S
C226        C677   1.564       .  S
Zn227       O231   1.943   1_565  S
Zn227       O232   2.112   1_565  S
Zn227       O236   2.038   1_565  S
Zn227       O243   2.035       .  S
Zn228       O231   1.855   1_556  S
Zn228       O233   1.949       .  S
Zn228       O235   1.944       .  S
Zn228       O239   1.947       .  S
Zn229       O231   1.942       .  S
Zn229       O234   2.047       .  S
Zn229       O237   2.122   1_554  S
Zn229       O240   2.040   1_554  S
Zn230       O231   1.940   1_566  S
Zn230       O238   2.021       .  S
Zn230       O241   2.117       .  S
Zn230       O242   2.042   1_556  S
O232        C244   1.284       .  A
O233        C245   1.265       .  A
O234        C246   1.279       .  A
O235        C244   1.264   1_556  A
O236        C246   1.277       .  A
O237        C245   1.285       .  A
O238        C247   1.277       .  A
O239        C248   1.264   1_545  A
O240        C247   1.278   1_545  A
O241        C248   1.284       .  A
O242        C249   1.278       .  A
O243        C249   1.278       .  A
C244        C507   1.485       .  S
C245        C697   1.489       .  S
C246        C727   1.481       .  S
C247       C1097   1.474       .  S
C248       C1047   1.486       .  S
C249       C1087   1.479       .  S
Zn250       O254   1.841       .  S
Zn250       O255   1.948       .  S
Zn250       O259   1.956       .  S
Zn250       O266   1.938       .  S
Zn251       O254   1.941   1_545  S
Zn251       O256   2.006       .  S
Zn251       O258   2.103   1_545  S
Zn251       O262   2.026   1_545  S
Zn252       O254   1.934   1_545  S
Zn252       O257   2.093       .  S
Zn252       O260   2.035       .  S
Zn252       O263   2.031       .  S
Zn253       O254   1.931       .  S
Zn253       O261   2.044       .  S
Zn253       O264   2.034       .  S
Zn253       O265   2.121       .  S
O255        C267   1.263       .  A
O256        C268   1.276       .  A
O257        C269   1.283       .  A
O258        C267   1.280       .  A
O259        C269   1.267   1_565  A
O260        C268   1.277       .  A
O261        C270   1.279   1_565  A
O262        C271   1.277       .  A
O263        C270   1.277       .  A
O264        C271   1.280       .  A
O265        C272   1.285       .  A
O266        C272   1.264       .  A
C267        C817   1.487       .  S
C268        C494   1.478       .  S
C269       C1057   1.484       .  S
C270        C904   1.477       .  S
C271        C717   1.485       .  S
C272        C487   1.491       .  S
C273        C477   1.557       .  S
C273        C497   1.549       .  S
C273        C544   1.568       .  S
C273        C747   1.549       .  S
Zn274       O278   1.989   1_656  S
Zn274       O279   2.116       .  S
Zn274       O283   2.026   1_655  S
Zn274       O290   2.037       .  S
Zn275       O278   1.878   1_655  S
Zn275       O280   1.903       .  S
Zn275       O282   1.917       .  S
Zn275       O286   1.914       .  S
Zn276       O278   1.990       .  S
Zn276       O281   2.027   1_554  S
Zn276       O284   2.135       .  S
Zn276       O287   2.047       .  S
Zn277       O278   1.964       .  S
Zn277       O285   2.013       .  S
Zn277       O288   2.111   1_455  S
Zn277       O289   2.025       .  S
O279        C291   1.283       .  A
O280        C292   1.258   1_655  A
O281        C293   1.280       .  A
O282        C291   1.261   1_554  A
O283        C293   1.275       .  A
O284        C292   1.283       .  A
O285        C294   1.276       .  A
O286        C295   1.259       .  A
O287        C294   1.278       .  A
O288        C295   1.283       .  A
O289        C296   1.275   1_454  A
O290        C296   1.277       .  A
C291       C1007   1.487       .  S
C292        C607   1.494       .  S
C293        C947   1.486       .  S
C294        C967   1.487       .  S
C295        C777   1.477       .  S
C296        C464   1.485       .  S
Zn297       O301   1.970       .  S
Zn297       O302   2.025       .  S
Zn297       O306   2.012   1_556  S
Zn297       O313   2.097       .  S
Zn298       O301   1.980       .  S
Zn298       O303   2.061       .  S
Zn298       O305   2.046       .  S
Zn298       O309   2.123       .  S
Zn299       O301   1.983   1_554  S
Zn299       O304   2.028       .  S
Zn299       O307   2.028       .  S
Zn299       O310   2.097       .  S
Zn300       O301   1.900       .  S
Zn300       O308   1.942       .  S
Zn300       O311   1.936       .  S
Zn300       O312   1.965       .  S
O302        C314   1.275       .  A
O303        C315   1.279   1_556  A
O304        C316   1.275       .  A
O305        C314   1.279       .  A
O306        C316   1.275       .  A
O307        C315   1.277       .  A
O308        C317   1.264   1_556  A
O309        C318   1.285       .  A
O310        C317   1.281       .  A
O311        C318   1.263       .  A
O312        C319   1.266       .  A
O313        C319   1.280       .  A
C314        C977   1.477       .  S
C315       C1077   1.493       .  S
C316        C454   1.483       .  S
C317       C1017   1.478       .  S
C318       C1197   1.481       .  S
C319        C687   1.485       .  S
Zn320       O324   1.886   1_455  S
Zn320       O325   1.916       .  S
Zn320       O329   1.932       .  S
Zn320       O336   1.903       .  S
Zn321       O324   1.981       .  S
Zn321       O326   2.040       .  S
Zn321       O328   2.125   1_655  S
Zn321       O332   2.034       .  S
Zn322       O324   1.975   1_455  S
Zn322       O327   2.111       .  S
Zn322       O330   2.018       .  S
Zn322       O333   2.027   1_455  S
Zn323       O324   1.981       .  S
Zn323       O331   2.018       .  S
Zn323       O334   2.034       .  S
Zn323       O335   2.103       .  S
O325        C337   1.259       .  A
O326        C338   1.277   1_655  A
O327        C339   1.282       .  A
O328        C337   1.283       .  A
O329        C339   1.261       .  A
O330        C338   1.276       .  A
O331        C340   1.276       .  A
O332        C341   1.278       .  A
O333        C340   1.275       .  A
O334        C341   1.275       .  A
O335        C342   1.281       .  A
O336        C342   1.260   1_455  A
C337        C937   1.481       .  S
C338        C867   1.472   1_455  S
C339        C444   1.483       .  S
C340        C767   1.478       .  S
C341       C1177   1.483       .  S
C342        C637   1.485       .  S
C343        C434   1.562       .  S
C343        C447   1.560       .  S
C343        C537   1.552       .  S
C343        C667   1.549       .  S
Zn344       O348   1.873       .  S
Zn344       O349   1.884       .  S
Zn344       O353   1.923       .  S
Zn344       O360   1.912       .  S
Zn345       O348   2.001       .  S
Zn345       O350   2.066       .  S
Zn345       O352   2.162       .  S
Zn345       O356   2.056       .  S
Zn346       O348   1.980       .  S
Zn346       O351   2.116       .  S
Zn346       O354   2.011       .  S
Zn346       O357   2.030       .  S
Zn347       O348   1.979       .  S
Zn347       O355   2.015       .  S
Zn347       O358   2.035       .  S
Zn347       O359   2.142       .  S
O349        C361   1.256       .  A
O350        C362   1.281       .  A
O351        C363   1.282       .  A
O352        C361   1.286       .  A
O353        C363   1.259       .  A
O354        C362   1.275       .  A
O355        C364   1.274       .  A
O356        C365   1.281       .  A
O357        C364   1.276       .  A
O358        C365   1.277       .  A
O359        C366   1.286       .  A
O360        C366   1.260       .  A
C361        C424   1.501       .  S
C362        C414   1.489       .  S
C363        C437   1.484       .  S
C364       C1207   1.475       .  S
C365       C1167   1.488       .  S
C366        C474   1.497       .  S
C367        C427   1.558       .  S
C367        C457   1.554       .  S
C367        C527   1.564       .  S
C367        C837   1.551       .  S
C368        C404   1.549       .  S
C368        C467   1.563   1_455  S
C368        C577   1.561       .  S
C368       C1347   1.553   1_455  S
Zn369       O373   1.855       .  S
Zn369       O374   1.936       .  S
Zn369       O378   1.976       .  S
Zn369       O385   1.946       .  S
Zn370       O373   1.931       .  S
Zn370       O375   2.052       .  S
Zn370       O377   2.120       .  S
Zn370       O381   2.034       .  S
Zn371       O373   1.918       .  S
Zn371       O376   2.078       .  S
Zn371       O379   2.016       .  S
Zn371       O382   2.030       .  S
Zn372       O373   1.932       .  S
Zn372       O380   2.034       .  S
Zn372       O383   2.049       .  S
Zn372       O384   2.108       .  S
O374        C386   1.262       .  A
O375        C387   1.281       .  A
O376        C388   1.283       .  A
O377        C386   1.284       .  A
O378        C388   1.266       .  A
O379        C387   1.277       .  A
O380        C389   1.278       .  A
O381        C390   1.279       .  A
O382        C389   1.277       .  A
O383        C390   1.280       .  A
O384        C391   1.286       .  A
O385        C391   1.264       .  A
C386        C957   1.483       .  S
C387        C394   1.485       .  S
C388        C917   1.482       .  S
C389        C797   1.483       .  S
C390       C1024   1.480       .  S
C391        C407   1.487       .  S
C392        C397   1.561       .  S
C392        C417   1.559       .  S
C392        C484   1.554       .  S
C392       C1317   1.548       .  S
C393        C394   1.406       .  A
C393        C398   1.398       .  A
C393        H399   1.083       .  S
C394        C395   1.401       .  A
C395        C396   1.403       .  A
C395        H400   1.083       .  S
C396        C397   1.421       .  A
C396        H401   1.080       .  S
C397        C398   1.410       .  A
C398        H402   1.083       .  S
C403        C404   1.421       .  A
C403        C408   1.398       .  A
C403        H409   1.083       .  S
C404        C405   1.403       .  A
C405        C406   1.401       .  A
C405        H410   1.081       .  S
C406        C407   1.415       .  A
C406        H411   1.083       .  S
C407        C408   1.396       .  A
C408        H412   1.083       .  S
C413        C414   1.400       .  A
C413        C418   1.404       .  A
C413        H419   1.083       .  S
C414        C415   1.408       .  A
C415        C416   1.400       .  A
C415        H420   1.083       .  S
C416        C417   1.411       .  A
C416        H421   1.083       .  S
C417        C418   1.420       .  A
C418        H422   1.079       .  S
C423        C424   1.403       .  A
C423        C428   1.416       .  A
C423        H429   1.082       .  S
C424        C425   1.416       .  A
C425        C426   1.387       .  A
C425        H430   1.083       .  S
C426        C427   1.401       .  A
C426        H431   1.080       .  S
C427        C428   1.426       .  A
C428        H432   1.083       .  S
C433        C434   1.406       .  A
C433        C438   1.400       .  A
C433        H439   1.083       .  S
C434        C435   1.426       .  A
C435        C436   1.403       .  A
C435        H440   1.081       .  S
C436        C437   1.396       .  A
C436        H441   1.083       .  S
C437        C438   1.411       .  A
C438        H442   1.084       .  S
C443        C444   1.409       .  A
C443        C448   1.398       .  A
C443        H449   1.084       .  S
C444        C445   1.398       .  A
C445        C446   1.405       .  A
C445        H450   1.083       .  S
C446        C447   1.424       .  A
C446        H451   1.080       .  S
C447        C448   1.408       .  A
C448        H452   1.083       .  S
C453        C454   1.403       .  A
C453        C458   1.394       .  A
C453        H459   1.083       .  S
C454        C455   1.403       .  A
C455        C456   1.405       .  A
C455        H460   1.083       .  S
C456        C457   1.418       .  A
C456        H461   1.079       .  S
C457        C458   1.411       .  A
C458        H462   1.083       .  S
C463        C464   1.408   1_455  A
C463        C468   1.405       .  A
C463        H469   1.083       .  S
C464        C465   1.396       .  A
C465        C466   1.399       .  A
C465        H470   1.083       .  S
C466        C467   1.424       .  A
C466        H471   1.080       .  S
C467        C468   1.411   1_655  A
C468        H472   1.083       .  S
C473        C474   1.400       .  A
C473        C478   1.410       .  A
C473        H479   1.083       .  S
C474        C475   1.415       .  A
C475        C476   1.394       .  A
C475        H480   1.083       .  S
C476        C477   1.404       .  A
C476        H481   1.080       .  S
C477        C478   1.424       .  A
C478        H482   1.082       .  S
C483        C484   1.422       .  A
C483        C488   1.406       .  A
C483        H489   1.083       .  S
C484        C485   1.405       .  A
C485        C486   1.394       .  A
C485        H490   1.080       .  S
C486        C487   1.412       .  A
C486        H491   1.083       .  S
C487        C488   1.400       .  A
C488        H492   1.083       .  S
C493        C494   1.402       .  A
C493        C498   1.404       .  A
C493        H499   1.083       .  S
C494        C495   1.402       .  A
C495        C496   1.391       .  A
C495        H500   1.084       .  S
C496        C497   1.410       .  A
C496        H501   1.083       .  S
C497        C498   1.418       .  A
C498        H502   1.080       .  S
C503        C504   1.406       .  A
C503        C508   1.395       .  A
C503        H509   1.079       .  S
C504        C505   1.422   1_556  A
C505        C506   1.403       .  A
C505        H510   1.083       .  S
C506        C507   1.397       .  A
C506        H511   1.083       .  S
C507        C508   1.410   1_554  A
C508        H512   1.084       .  S
C513        C514   1.412   1_565  A
C513        C518   1.383       .  A
C513        H519   1.083       .  S
C514        C515   1.400       .  A
C515        C516   1.409       .  A
C515        H520   1.083       .  S
C516        C517   1.422       .  A
C516        H521   1.083       .  S
C517        C518   1.403   1_545  A
C518        H522   1.080       .  S
C523        C524   1.404       .  A
C523        C528   1.413       .  A
C523        H529   1.083       .  S
C524        C525   1.405       .  A
C525        C526   1.395       .  A
C525        H530   1.084       .  S
C526        C527   1.412       .  A
C526        H531   1.083       .  S
C527        C528   1.420       .  A
C528        H532   1.081       .  S
C533        C534   1.413       .  A
C533        C538   1.395       .  A
C533        H539   1.083       .  S
C534        C535   1.398       .  A
C535        C536   1.403       .  A
C535        H540   1.083       .  S
C536        C537   1.422       .  A
C536        H541   1.083       .  S
C537        C538   1.403       .  A
C538        H542   1.079       .  S
C543        C544   1.423       .  A
C543        C548   1.411       .  A
C543        H549   1.079       .  S
C544        C545   1.411       .  A
C545        C546   1.396       .  A
C545        H550   1.083       .  S
C546        C547   1.406       .  A
C546        H551   1.084       .  S
C547        C548   1.401       .  A
C548        H552   1.083       .  S
C553        C554   1.396       .  A
C553        C558   1.403       .  A
C553        H559   1.083       .  S
C554        C555   1.405       .  A
C555        C556   1.402       .  A
C555        H560   1.084       .  S
C556        C557   1.411       .  A
C556        H561   1.080       .  S
C557        C558   1.421       .  A
C558        H562   1.083       .  S
C563        C564   1.410       .  A
C563        C568   1.403       .  A
C563        H569   1.081       .  S
C564        C565   1.421       .  A
C565        C566   1.404       .  A
C565        H570   1.083       .  S
C566        C567   1.397       .  A
C566        H571   1.083       .  S
C567        C568   1.407       .  A
C568        H572   1.084       .  S
C573        C574   1.397       .  A
C573        C578   1.403       .  A
C573        H579   1.083       .  S
C574        C575   1.411   1_455  A
C575        C576   1.399       .  A
C575        H580   1.084       .  S
C576        C577   1.407   1_655  A
C576        H581   1.083       .  S
C577        C578   1.424       .  A
C578        H582   1.081       .  S
C583        C584   1.408       .  A
C583        C588   1.401       .  A
C583        H589   1.083       .  S
C584        C585   1.400       .  A
C585        C586   1.402       .  A
C585        H590   1.083       .  S
C586        C587   1.421       .  A
C586        H591   1.079       .  S
C587        C588   1.411       .  A
C588        H592   1.083       .  S
C593        C594   1.406       .  A
C593        C598   1.396   1_565  A
C593        H599   1.083       .  S
C594        C595   1.401       .  A
C595        C596   1.403       .  A
C595        H600   1.083       .  S
C596        C597   1.421   1_565  A
C596        H601   1.079       .  S
C597        C598   1.410       .  A
C598        H602   1.083       .  S
C603        C604   1.423       .  A
C603        C608   1.412       .  A
C603        H609   1.082       .  S
C604        C605   1.404   1_455  A
C605        C606   1.389       .  A
C605        H610   1.081       .  S
C606        C607   1.412   1_655  A
C606        H611   1.083       .  S
C607        C608   1.402       .  A
C608        H612   1.083       .  S
C613        C614   1.419       .  A
C613        C618   1.403       .  A
C613        H619   1.082       .  S
C614        C615   1.411       .  A
C615        C616   1.399       .  A
C615        H620   1.082       .  S
C616        C617   1.405       .  A
C616        H621   1.084       .  S
C617        C618   1.397       .  A
C618        H622   1.083       .  S
C623        C624   1.408       .  A
C623        C628   1.395       .  A
C623        H629   1.083       .  S
C624        C625   1.420       .  A
C625        C626   1.407   1_455  A
C625        H630   1.080   1_455  S
C626        C627   1.402       .  A
C626        H631   1.083       .  S
C627        C628   1.406   1_655  A
C628        H632   1.084       .  S
C633        C634   1.402   1_455  A
C633        C638   1.386       .  A
C633        H639   1.080       .  S
C634        C635   1.421       .  A
C635        C636   1.405       .  A
C635        H640   1.083       .  S
C636        C637   1.400       .  A
C636        H641   1.083       .  S
C637        C638   1.411   1_655  A
C638        H642   1.083       .  S
C643        C644   1.402   1_655  A
C643        C648   1.389       .  A
C643        H649   1.084       .  S
C644        C645   1.398       .  A
C645        C646   1.401   1_455  A
C645        H650   1.083       .  S
C646        C647   1.421       .  A
C646        H651   1.080       .  S
C647        C648   1.408       .  A
C648        H652   1.083       .  S
C653        C654   1.401       .  A
C653        C658   1.407       .  A
C653        H659   1.083       .  S
C654        C655   1.402       .  A
C655        C656   1.391       .  A
C655        H660   1.084       .  S
C656        C657   1.411       .  A
C656        H661   1.083       .  S
C657        C658   1.420       .  A
C658        H662   1.080   1_455  S
C663        C664   1.398       .  A
C663        C668   1.403       .  A
C663        H669   1.083       .  S
C664        C665   1.414       .  A
C665        C666   1.392       .  A
C665        H670   1.083       .  S
C666        C667   1.401       .  A
C666        H671   1.081       .  S
C667        C668   1.422       .  A
C668        H672   1.083       .  S
C673        C674   1.404       .  A
C673        C678   1.406       .  A
C673        H679   1.083       .  S
C674        C675   1.405       .  A
C675        C676   1.398       .  A
C675        H680   1.083       .  S
C676        C677   1.413       .  A
C676        H681   1.083       .  S
C677        C678   1.419       .  A
C678        H682   1.080       .  S
C683        C684   1.412       .  A
C683        C688   1.395       .  A
C683        H689   1.083       .  S
C684        C685   1.419       .  A
C685        C686   1.409       .  A
C685        H690   1.081       .  S
C686        C687   1.403       .  A
C686        H691   1.083       .  S
C687        C688   1.404       .  A
C688        H692   1.084       .  S
C693        C694   1.422       .  A
C693        C698   1.407       .  A
C693        H699   1.082       .  S
C694        C695   1.407       .  A
C695        C696   1.396       .  A
C695        H700   1.080       .  S
C696        C697   1.410       .  A
C696        H701   1.084       .  S
C697        C698   1.399       .  A
C698        H702   1.083       .  S
C703        C704   1.411       .  A
C703        C708   1.394       .  A
C703        H709   1.083       .  S
C704        C705   1.419       .  A
C705        C706   1.408       .  A
C705        H710   1.079       .  S
C706        C707   1.404       .  A
C706        H711   1.083       .  S
C707        C708   1.405       .  A
C708        H712   1.083       .  S
C713        C714   1.418       .  A
C713        C718   1.406       .  A
C713        H719   1.080       .  S
C714        C715   1.414       .  A
C715        C716   1.395       .  A
C715        H720   1.083       .  S
C716        C717   1.403       .  A
C716        H721   1.083       .  S
C717        C718   1.405       .  A
C718        H722   1.083       .  S
C723        C724   1.420       .  A
C723        C728   1.406       .  A
C723        H729   1.083       .  S
C724        C725   1.412   1_545  A
C725        C726   1.401       .  A
C725        H730   1.080       .  S
C726        C727   1.405   1_565  A
C726        H731   1.084       .  S
C727        C728   1.398       .  A
C728        H732   1.083       .  S
C733        C734   1.419       .  A
C733        C738   1.403       .  A
C733        H739   1.083       .  S
C734        C735   1.411       .  A
C735        C736   1.400       .  A
C735        H740   1.080       .  S
C736        C737   1.404       .  A
C736        H741   1.084       .  S
C737        C738   1.397       .  A
C738        H742   1.083       .  S
C743        C744   1.402       .  A
C743        C748   1.396       .  A
C743        H749   1.084       .  S
C744        C745   1.399       .  A
C745        C746   1.403       .  A
C745        H750   1.083       .  S
C746        C747   1.417       .  A
C746        H751   1.083       .  S
C747        C748   1.412       .  A
C748        H752   1.081       .  S
C753        C754   1.404       .  A
C753        C758   1.415       .  A
C753        H759   1.083       .  S
C754        C755   1.405       .  A
C755        C756   1.392       .  A
C755        H760   1.084       .  S
C756        C757   1.409       .  A
C756        H761   1.083       .  S
C757        C758   1.422       .  A
C758        H762   1.081   1_655  S
C763        C764   1.422       .  A
C763        C768   1.393       .  A
C763        H769   1.079       .  S
C764        C765   1.412       .  A
C765        C766   1.404       .  A
C765        H770   1.083       .  S
C766        C767   1.407       .  A
C766        H771   1.083       .  S
C767        C768   1.395       .  A
C768        H772   1.084       .  S
C773        C774   1.426       .  A
C773        C778   1.402       .  A
C773        H779   1.080       .  S
C774        C775   1.408       .  A
C775        C776   1.397       .  A
C775        H780   1.083       .  S
C776        C777   1.408       .  A
C776        H781   1.084       .  S
C777        C778   1.395       .  A
C778        H782   1.083       .  S
C783        C784   1.402       .  A
C783        C788   1.395       .  A
C783        H789   1.079       .  S
C784        C785   1.423       .  A
C785        C786   1.404       .  A
C785        H790   1.083       .  S
C786        C787   1.398       .  A
C786        H791   1.083       .  S
C787        C788   1.415       .  A
C788        H792   1.083       .  S
C793        C794   1.414       .  A
C793        C798   1.397       .  A
C793        H799   1.083       .  S
C794        C795   1.416       .  A
C795        C796   1.404       .  A
C795        H800   1.080       .  S
C796        C797   1.403       .  A
C796        H801   1.083       .  S
C797        C798   1.403       .  A
C798        H802   1.084       .  S
C803        C804   1.407       .  A
C803        C808   1.387       .  A
C803        H809   1.083       .  S
C804        C805   1.422       .  A
C805        C806   1.411       .  A
C805        H810   1.080       .  S
C806        C807   1.402       .  A
C806        H811   1.083       .  S
C807        C808   1.404       .  A
C808        H812   1.084       .  S
C813        C814   1.406       .  A
C813        C818   1.390       .  A
C813        H819   1.081       .  S
C814        C815   1.420       .  A
C815        C816   1.408       .  A
C815        H820   1.083       .  S
C816        C817   1.402       .  A
C816        H821   1.083       .  S
C817        C818   1.408       .  A
C818        H822   1.083       .  S
C823        C824   1.405       .  A
C823        C828   1.403       .  A
C823        H829   1.084       .  S
C824        C825   1.400       .  A
C825        C826   1.407       .  A
C825        H830   1.083       .  S
C826        C827   1.420       .  A
C826        H831   1.083       .  S
C827        C828   1.412       .  A
C828        H832   1.081       .  S
C833        C834   1.400       .  A
C833        C838   1.409       .  A
C833        H839   1.083       .  S
C834        C835   1.411       .  A
C835        C836   1.394       .  A
C835        H840   1.084       .  S
C836        C837   1.406       .  A
C836        H841   1.081       .  S
C837        C838   1.421       .  A
C838        H842   1.083       .  S
C843        C844   1.403       .  A
C843        C848   1.407       .  A
C843        H849   1.083       .  S
C844        C845   1.404       .  A
C845        C846   1.394       .  A
C845        H850   1.083       .  S
C846        C847   1.413       .  A
C846        H851   1.083       .  S
C847        C848   1.418       .  A
C848        H852   1.079       .  S
C853        C854   1.422       .  A
C853        C858   1.399       .  A
C853        H859   1.080       .  S
C854        C855   1.412       .  A
C855        C856   1.406       .  A
C855        H860   1.083       .  S
C856        C857   1.407       .  A
C856        H861   1.083       .  S
C857        C858   1.397       .  A
C858        H862   1.083       .  S
C863        C864   1.421   1_455  A
C863        C868   1.396       .  A
C863        H869   1.083       .  S
C864        C865   1.409       .  A
C865        C866   1.404       .  A
C865        H870   1.080       .  S
C866        C867   1.407       .  A
C866        H871   1.083       .  S
C867        C868   1.393   1_655  A
C868        H872   1.083       .  S
C873        C874   1.423       .  A
C873        C878   1.405       .  A
C873        H879   1.083       .  S
C874        C875   1.401   1_655  A
C875        C876   1.393       .  A
C875        H880   1.080       .  S
C876        C877   1.416   1_455  A
C876        H881   1.083       .  S
C877        C878   1.398       .  A
C878        H882   1.083       .  S
C883        C884   1.419       .  A
C883        C888   1.404       .  A
C883        H889   1.080       .  S
C884        C885   1.412       .  A
C885        C886   1.399       .  A
C885        H890   1.083       .  S
C886        C887   1.407       .  A
C886        H891   1.083       .  S
C887        C888   1.403       .  A
C888        H892   1.083       .  S
C893        C894   1.422       .  A
C893        C898   1.405       .  A
C893        H899   1.079       .  S
C894        C895   1.412       .  A
C895        C896   1.399       .  A
C895        H900   1.083       .  S
C896        C897   1.405       .  A
C896        H901   1.083       .  S
C897        C898   1.400       .  A
C898        H902   1.083   1_545  S
C903        C904   1.397       .  A
C903        C908   1.404       .  A
C903        H909   1.083       .  S
C904        C905   1.404       .  A
C905        C906   1.400       .  A
C905        H910   1.084       .  S
C906        C907   1.411       .  A
C906        H911   1.080       .  S
C907        C908   1.420       .  A
C908        H912   1.083       .  S
C913        C914   1.413       .  A
C913        C918   1.409       .  A
C913        H919   1.083       .  S
C914        C915   1.422       .  A
C915        C916   1.392       .  A
C915        H920   1.079       .  S
C916        C917   1.394       .  A
C916        H921   1.084       .  S
C917        C918   1.409       .  A
C918        H922   1.083       .  S
C923        C924   1.418       .  A
C923        C928   1.409       .  A
C923        H929   1.077       .  S
C924        C925   1.414       .  A
C925        C926   1.392       .  A
C925        H930   1.083       .  S
C926        C927   1.401       .  A
C926        H931   1.084       .  S
C927        C928   1.403       .  A
C928        H932   1.083       .  S
C933        C934   1.421       .  A
C933        C938   1.414       .  A
C933        H939   1.075       .  S
C934        C935   1.413       .  A
C935        C936   1.389       .  A
C935        H940   1.083       .  S
C936        C937   1.402       .  A
C936        H941   1.084       .  S
C937        C938   1.403       .  A
C938        H942   1.083   1_455  S
C943        C944   1.424       .  A
C943        C948   1.389       .  A
C943        H949   1.080       .  S
C944        C945   1.411       .  A
C945        C946   1.411       .  A
C945        H950   1.082       .  S
C946        C947   1.412       .  A
C946        H951   1.083       .  S
C947        C948   1.394       .  A
C948        H952   1.083       .  S
C953        C954   1.405       .  A
C953        C958   1.393       .  A
C953        H959   1.080       .  S
C954        C955   1.422       .  A
C955        C956   1.405       .  A
C955        H960   1.082       .  S
C956        C957   1.398       .  A
C956        H961   1.083       .  S
C957        C958   1.410       .  A
C958        H962   1.084       .  S
C963        C964   1.418       .  A
C963        C968   1.408       .  A
C963        H969   1.080       .  S
C964        C965   1.413       .  A
C965        C966   1.395       .  A
C965        H970   1.082       .  S
C966        C967   1.404       .  A
C966        H971   1.083       .  S
C967        C968   1.404       .  A
C968        H972   1.083       .  S
C973        C974   1.412   1_554  A
C973        C978   1.398       .  A
C973        H979   1.081       .  S
C974        C975   1.420       .  A
C975        C976   1.406       .  A
C975        H980   1.083       .  S
C976        C977   1.399       .  A
C976        H981   1.083       .  S
C977        C978   1.403   1_556  A
C978        H982   1.084       .  S
C983        C984   1.410       .  A
C983        C988   1.396       .  A
C983        H989   1.083       .  S
C984        C985   1.419       .  A
C985        C986   1.402       .  A
C985        H990   1.081       .  S
C986        C987   1.401       .  A
C986        H991   1.083       .  S
C987        C988   1.407       .  A
C988        H992   1.083       .  S
C993        C994   1.408       .  A
C993        C998   1.387       .  A
C993        H999   1.083       .  S
C994        C995   1.421       .  A
C995        C996   1.408       .  A
C995       H1000   1.080       .  S
C996        C997   1.400       .  A
C996       H1001   1.083       .  S
C997        C998   1.401       .  A
C998       H1002   1.084       .  S
C1003      C1004   1.421       .  A
C1003      C1008   1.407       .  A
C1003      H1009   1.082       .  S
C1004      C1005   1.405   1_556  A
C1005      C1006   1.390       .  A
C1005      H1010   1.081       .  S
C1006      C1007   1.410   1_554  A
C1006      H1011   1.084       .  S
C1007      C1008   1.400       .  A
C1008      H1012   1.083       .  S
C1013      C1014   1.409   1_556  A
C1013      C1018   1.390   1_556  A
C1013      H1019   1.083       .  S
C1014      C1015   1.419       .  A
C1015      C1016   1.408       .  A
C1015      H1020   1.080       .  S
C1016      C1017   1.402       .  A
C1016      H1021   1.083       .  S
C1017      C1018   1.403       .  A
C1018      H1022   1.084   1_554  S
C1023      C1024   1.400       .  A
C1023      C1028   1.407       .  A
C1023      H1029   1.083       .  S
C1024      C1025   1.402       .  A
C1025      C1026   1.397       .  A
C1025      H1030   1.084       .  S
C1026      C1027   1.412       .  A
C1026      H1031   1.081       .  S
C1027      C1028   1.419       .  A
C1028      H1032   1.083       .  S
C1033      C1034   1.404       .  A
C1033      C1038   1.398       .  A
C1033      H1039   1.083       .  S
C1034      C1035   1.404       .  A
C1035      C1036   1.407       .  A
C1035      H1040   1.084       .  S
C1036      C1037   1.418       .  A
C1036      H1041   1.079       .  S
C1037      C1038   1.414       .  A
C1038      H1042   1.083       .  S
C1043      C1044   1.422   1_565  A
C1043      C1048   1.406       .  A
C1043      H1049   1.082       .  S
C1044      C1045   1.407       .  A
C1045      C1046   1.395       .  A
C1045      H1050   1.080       .  S
C1046      C1047   1.410   1_545  A
C1046      H1051   1.084       .  S
C1047      C1048   1.399       .  A
C1048      H1052   1.083       .  S
C1053      C1054   1.409   1_565  A
C1053      C1058   1.393   1_565  A
C1053      H1059   1.083       .  S
C1054      C1055   1.418       .  A
C1055      C1056   1.405       .  A
C1055      H1060   1.081       .  S
C1056      C1057   1.402       .  A
C1056      H1061   1.083       .  S
C1057      C1058   1.406       .  A
C1058      H1062   1.083   1_545  S
C1063      C1064   1.407       .  A
C1063      C1068   1.398       .  A
C1063      H1069   1.081       .  S
C1064      C1065   1.421       .  A
C1065      C1066   1.407       .  A
C1065      H1070   1.083       .  S
C1066      C1067   1.400       .  A
C1066      H1071   1.083       .  S
C1067      C1068   1.413       .  A
C1068      H1072   1.083       .  S
C1073      C1074   1.412       .  A
C1073      C1078   1.401       .  A
C1073      H1079   1.083       .  S
C1074      C1075   1.421       .  A
C1075      C1076   1.408       .  A
C1075      H1080   1.079       .  S
C1076      C1077   1.403       .  A
C1076      H1081   1.083       .  S
C1077      C1078   1.406       .  A
C1078      H1082   1.083       .  S
C1083      C1084   1.421       .  A
C1083      C1088   1.403       .  A
C1083      H1089   1.083       .  S
C1084      C1085   1.411       .  A
C1085      C1086   1.403       .  A
C1085      H1090   1.081       .  S
C1086      C1087   1.406       .  A
C1086      H1091   1.084       .  S
C1087      C1088   1.396       .  A
C1088      H1092   1.083       .  S
C1093      C1094   1.410       .  A
C1093      C1098   1.397       .  A
C1093      H1099   1.080       .  S
C1094      C1095   1.419   1_554  A
C1095      C1096   1.404       .  A
C1095      H1100   1.083       .  S
C1096      C1097   1.398       .  A
C1096      H1101   1.083       .  S
C1097      C1098   1.403   1_556  A
C1098      H1102   1.084       .  S
C1103      C1104   1.402       .  A
C1103      C1108   1.410       .  A
C1103      H1109   1.083       .  S
C1104      C1105   1.400       .  A
C1105      C1106   1.389       .  A
C1105      H1110   1.084       .  S
C1106      C1107   1.412       .  A
C1106      H1111   1.083       .  S
C1107      C1108   1.420       .  A
C1108      H1112   1.080       .  S
C1113      C1114   1.410       .  A
C1113      C1118   1.392       .  A
C1113      H1119   1.083       .  S
C1114      C1115   1.419       .  A
C1115      C1116   1.402       .  A
C1115      H1120   1.079       .  S
C1116      C1117   1.401       .  A
C1116      H1121   1.083       .  S
C1117      C1118   1.405       .  A
C1118      H1122   1.083       .  S
C1123      C1124   1.401       .  A
C1123      C1128   1.401       .  A
C1123      H1129   1.083       .  S
C1124      C1125   1.405       .  A
C1125      C1126   1.397       .  A
C1125      H1130   1.083       .  S
C1126      C1127   1.412       .  A
C1126      H1131   1.083       .  S
C1127      C1128   1.419       .  A
C1128      H1132   1.079       .  S
C1133      C1134   1.398       .  A
C1133      C1138   1.399       .  A
C1133      H1139   1.083       .  S
C1134      C1135   1.411       .  A
C1135      C1136   1.403       .  A
C1135      H1140   1.083       .  S
C1136      C1137   1.408       .  A
C1136      H1141   1.083       .  S
C1137      C1138   1.422       .  A
C1138      H1142   1.081       .  S
C1143      C1144   1.399       .  A
C1143      C1148   1.402       .  A
C1143      H1149   1.083       .  S
C1144      C1145   1.413       .  A
C1145      C1146   1.394       .  A
C1145      H1150   1.083       .  S
C1146      C1147   1.402       .  A
C1146      H1151   1.080       .  S
C1147      C1148   1.421       .  A
C1148      H1152   1.083       .  S
C1153      C1154   1.407       .  A
C1153      C1158   1.399       .  A
C1153      H1159   1.083       .  S
C1154      C1155   1.403       .  A
C1155      C1156   1.409       .  A
C1155      H1160   1.083       .  S
C1156      C1157   1.421       .  A
C1156      H1161   1.079       .  S
C1157      C1158   1.411       .  A
C1158      H1162   1.083       .  S
C1163      C1164   1.411       .  A
C1163      C1168   1.412       .  A
C1163      H1169   1.083       .  S
C1164      C1165   1.428       .  A
C1165      C1166   1.397       .  A
C1165      H1170   1.080       .  S
C1166      C1167   1.393       .  A
C1166      H1171   1.083       .  S
C1167      C1168   1.411       .  A
C1168      H1172   1.083       .  S
C1173      C1174   1.423       .  A
C1173      C1178   1.395       .  A
C1173      H1179   1.081       .  S
C1174      C1175   1.411       .  A
C1175      C1176   1.408       .  A
C1175      H1180   1.083       .  S
C1176      C1177   1.409       .  A
C1176      H1181   1.083       .  S
C1177      C1178   1.395       .  A
C1178      H1182   1.083       .  S
C1183      C1184   1.404       .  A
C1183      C1188   1.398       .  A
C1183      H1189   1.080       .  S
C1184      C1185   1.422       .  A
C1185      C1186   1.398       .  A
C1185      H1190   1.083       .  S
C1186      C1187   1.395       .  A
C1186      H1191   1.083       .  S
C1187      C1188   1.414       .  A
C1188      H1192   1.083       .  S
C1193      C1194   1.411       .  A
C1193      C1198   1.396       .  A
C1193      H1199   1.083       .  S
C1194      C1195   1.422       .  A
C1195      C1196   1.408       .  A
C1195      H1200   1.080       .  S
C1196      C1197   1.401       .  A
C1196      H1201   1.083       .  S
C1197      C1198   1.405       .  A
C1198      H1202   1.084       .  S
C1203      C1204   1.409       .  A
C1203      C1208   1.400       .  A
C1203      H1209   1.081       .  S
C1204      C1205   1.420       .  A
C1205      C1206   1.400       .  A
C1205      H1210   1.083       .  S
C1206      C1207   1.395       .  A
C1206      H1211   1.083       .  S
C1207      C1208   1.407       .  A
C1208      H1212   1.084       .  S
C1213      C1214   1.403       .  A
C1213      C1218   1.389       .  A
C1213      H1219   1.079       .  S
C1214      C1215   1.424       .  A
C1215      C1216   1.410       .  A
C1215      H1220   1.083       .  S
C1216      C1217   1.400       .  A
C1216      H1221   1.082       .  S
C1217      C1218   1.415       .  A
C1218      H1222   1.083       .  S
C1223      C1224   1.400       .  A
C1223      C1228   1.408       .  A
C1223      H1229   1.083       .  S
C1224      C1225   1.409       .  A
C1225      C1226   1.386       .  A
C1225      H1230   1.084       .  S
C1226      C1227   1.404       .  A
C1226      H1231   1.081       .  S
C1227      C1228   1.421       .  A
C1228      H1232   1.083       .  S
C1233      C1234   1.403       .  A
C1233      C1238   1.415       .  A
C1233      H1239   1.082       .  S
C1234      C1235   1.412       .  A
C1235      C1236   1.385       .  A
C1235      H1240   1.084       .  S
C1236      C1237   1.403       .  A
C1236      H1241   1.081       .  S
C1237      C1238   1.424       .  A
C1238      H1242   1.083       .  S
C1243      C1244   1.402       .  A
C1243      C1248   1.394       .  A
C1243      H1249   1.084       .  S
C1244      C1245   1.395       .  A
C1245      C1246   1.400       .  A
C1245      H1250   1.083       .  S
C1246      C1247   1.419       .  A
C1246      H1251   1.083       .  S
C1247      C1248   1.409       .  A
C1248      H1252   1.081       .  S
C1253      C1254   1.395       .  A
C1253      C1258   1.403       .  A
C1253      H1259   1.083       .  S
C1254      C1255   1.408       .  A
C1255      C1256   1.405       .  A
C1255      H1260   1.084       .  S
C1256      C1257   1.410       .  A
C1256      H1261   1.080       .  S
C1257      C1258   1.422       .  A
C1258      H1262   1.083       .  S
C1263      C1264   1.407       .  A
C1263      C1268   1.405       .  A
C1263      H1269   1.080       .  S
C1264      C1265   1.422   1_545  A
C1265      C1266   1.394       .  A
C1265      H1270   1.083       .  S
C1266      C1267   1.391       .  A
C1266      H1271   1.083       .  S
C1267      C1268   1.409   1_565  A
C1268      H1272   1.083       .  S
C1273      C1274   1.421       .  A
C1273      C1278   1.404       .  A
C1273      H1279   1.083       .  S
C1274      C1275   1.403   1_545  A
C1275      C1276   1.394       .  A
C1275      H1280   1.080       .  S
C1276      C1277   1.413   1_565  A
C1276      H1281   1.083       .  S
C1277      C1278   1.400       .  A
C1278      H1282   1.083       .  S
C1283      C1284   1.412       .  A
C1283      C1288   1.406       .  A
C1283      H1289   1.083       .  S
C1284      C1285   1.424       .  A
C1285      C1286   1.392       .  A
C1285      H1290   1.079       .  S
C1286      C1287   1.392       .  A
C1286      H1291   1.084       .  S
C1287      C1288   1.408       .  A
C1288      H1292   1.083       .  S
C1293      C1294   1.401       .  A
C1293      C1298   1.406       .  A
C1293      H1299   1.083       .  S
C1294      C1295   1.404       .  A
C1295      C1296   1.394       .  A
C1295      H1300   1.084       .  S
C1296      C1297   1.410       .  A
C1296      H1301   1.083       .  S
C1297      C1298   1.420       .  A
C1298      H1302   1.080       .  S
C1303      C1304   1.412       .  A
C1303      C1308   1.410       .  A
C1303      H1309   1.083       .  S
C1304      C1305   1.391       .  A
C1305      C1306   1.395       .  A
C1305      H1310   1.083       .  S
C1306      C1307   1.423       .  A
C1306      H1311   1.083       .  S
C1307      C1308   1.407       .  A
C1308      H1312   1.081       .  S
C1313      C1314   1.404       .  A
C1313      C1318   1.398       .  A
C1313      H1319   1.084       .  S
C1314      C1315   1.392       .  A
C1315      C1316   1.397       .  A
C1315      H1320   1.083       .  S
C1316      C1317   1.422       .  A
C1316      H1321   1.083       .  S
C1317      C1318   1.408       .  A
C1318      H1322   1.080       .  S
C1323      C1324   1.425       .  A
C1323      C1328   1.401       .  A
C1323      H1329   1.081       .  S
C1324      C1325   1.407       .  A
C1325      C1326   1.398       .  A
C1325      H1330   1.083       .  S
C1326      C1327   1.409       .  A
C1326      H1331   1.084       .  S
C1327      C1328   1.395       .  A
C1328      H1332   1.083       .  S
C1333      C1334   1.410       .  A
C1333      C1338   1.385       .  A
C1333      H1339   1.083       .  S
C1334      C1335   1.402       .  A
C1335      C1336   1.410       .  A
C1335      H1340   1.083       .  S
C1336      C1337   1.422       .  A
C1336      H1341   1.083       .  S
C1337      C1338   1.404       .  A
C1338      H1342   1.079       .  S
C1343      C1344   1.399       .  A
C1343      C1348   1.404       .  A
C1343      H1349   1.083       .  S
C1344      C1345   1.414       .  A
C1345      C1346   1.394       .  A
C1345      H1350   1.083       .  S
C1346      C1347   1.403       .  A
C1346      H1351   1.080       .  S
C1347      C1348   1.422       .  A
C1348      H1352   1.083       .  S
