geometry optimzed in LAMMPS
_audit_creation_date              2020-11-30 
_audit_creation_method            'lammps2cif' 
_symmetry_space_group_name_H-M    'P1' 
_symmetry_Int_Tables_number       1 
_symmetry_cell_setting            triclinic 
loop_ 
_symmetry_equiv_pos_as_xyz 
  x,y,z 
_cell_length_a                    41.16864549 
_cell_length_b                    41.276132776183935 
_cell_length_c                    79.3156791015262 
_cell_angle_alpha                 89.99559082404181 
_cell_angle_beta                  89.94914272565494 
_cell_angle_gamma                 90.01052325587976 
loop_ 
_atom_site_label 
_atom_site_type_symbol 
_atom_site_fract_x 
_atom_site_fract_y 
_atom_site_fract_z 
_atom_site_charge 
O1          O  0.72448000  0.72094512  0.76700655    -0.72500
O2          O  0.72182284  0.78733012  0.73014513    -0.73500
O3          O  0.72144959  0.71850939  0.73148703    -0.62100
O4          O  0.72490195  0.78970072  0.76595830    -0.70500
O5          O  0.77850074  0.78959285  0.76495713    -0.70100
O6          O  0.77510285  0.71760777  0.73064142    -0.61300
O7          O  0.77560533  0.78626310  0.72896108    -0.73900
O8          O  0.77818663  0.72055730  0.76623698    -0.72600
Cu9        Cu  0.72133674  0.75418648  0.74869836     1.04600
Cu10       Cu  0.77872525  0.75356513  0.74765270     1.04300
C11         C  0.75157176  0.70987330  0.77235641     0.93700
C12         C  0.74843988  0.79696101  0.72353885     0.92800
C13         C  0.74773079  0.70643716  0.72569688     0.85000
C14         C  0.75211712  0.80095646  0.77108286     0.91200
O15         O  0.23164160  0.78642763  0.73285412    -0.72500
O16         O  0.23006264  0.71960054  0.76935174    -0.73500
O17         O  0.23178633  0.78824666  0.76865402    -0.62100
O18         O  0.22997611  0.71793892  0.73373045    -0.70500
O19         O  0.28386139  0.71613144  0.73385544    -0.70100
O20         O  0.28552304  0.78679021  0.76873014    -0.61300
O21         O  0.28391279  0.71814446  0.76952400    -0.73900
O22         O  0.28554915  0.78539148  0.73284422    -0.72600
Cu23       Cu  0.22902569  0.75313099  0.75115957     1.04600
Cu24       Cu  0.28662276  0.75161072  0.75122679     1.04300
C25         C  0.25877792  0.79628492  0.72696805     0.93700
C26         C  0.25659597  0.70798577  0.77505634     0.92800
C27         C  0.25893619  0.79854461  0.77435575     0.85000
C28         C  0.25658249  0.70572760  0.72840862     0.91200
O29         O  0.03619808  0.47861985  0.51884109    -0.72500
O30         O  0.96613231  0.47248062  0.48401769    -0.73500
O31         O  0.03512796  0.47201187  0.48335515    -0.62100
O32         O  0.96770409  0.47894891  0.51961841    -0.70500
O33         O  0.96865602  0.53244450  0.51743012    -0.70100
O34         O  0.03478546  0.52548539  0.48081828    -0.61300
O35         O  0.96581349  0.52613769  0.48197082    -0.73900
O36         O  0.03696346  0.53189595  0.51618621    -0.72600
Cu37       Cu  0.00125035  0.47361701  0.50151274     1.04600
Cu38       Cu  0.00153565  0.53081591  0.49895360     1.04300
C39         C  0.04771159  0.50618112  0.52313823     0.93700
C40         C  0.95450010  0.49849829  0.47773961     0.92800
C41         C  0.04610979  0.49788030  0.47658620     0.85000
C42         C  0.95797740  0.50681825  0.52450571     0.91200
C43         C  0.73421487  0.48401098  0.62323262     0.03500
C44         C  0.73212540  0.50738318  0.63602402    -0.12600
C45         C  0.75513013  0.53227003  0.63704673     0.01000
C46         C  0.78077817  0.53354935  0.62548147    -0.11100
C47         C  0.78288435  0.51057312  0.61257580     0.03500
C48         C  0.75947246  0.48597801  0.61136898    -0.10500
H49         H  0.71240218  0.50642947  0.64507659     0.09100
H50         H  0.79866299  0.55276815  0.62632436     0.06700
H51         H  0.76086435  0.46850018  0.60119401     0.06500
C52         C  0.26626474  0.48377867  0.62704190     0.03500
C53         C  0.24172902  0.48375120  0.61480042    -0.12600
C54         C  0.21786870  0.50803865  0.61475069     0.01000
C55         C  0.21887674  0.53254644  0.62702623    -0.11100
C56         C  0.24316398  0.53240510  0.63944395     0.03500
C57         C  0.26700266  0.50819023  0.63927249    -0.10500
H58         H  0.24125299  0.46486192  0.60530815     0.09100
H59         H  0.20102721  0.55183409  0.62686096     0.06700
H60         H  0.28596138  0.50817646  0.64875111     0.06500
O61         O  0.03579408  0.96276927  0.51974735    -0.72500
O62         O  0.96823405  0.96206246  0.48356221    -0.73500
O63         O  0.03719402  0.96137008  0.48415365    -0.62100
O64         O  0.96701004  0.96449874  0.51935091    -0.70500
O65         O  0.96850686  0.01796524  0.51889406    -0.70100
O66         O  0.03684758  0.01515675  0.48298119    -0.61300
O67         O  0.96818276  0.01572875  0.48291879    -0.73900
O68         O  0.03782374  0.01651156  0.51858381    -0.72600
Cu69       Cu  0.00198959  0.96082365  0.50173250     1.04600
Cu70       Cu  0.00282686  0.01823585  0.50084374     1.04300
C71         C  0.04786601  0.98961517  0.52464640     0.93700
C72         C  0.95744005  0.98857751  0.47748099     0.92800
C73         C  0.04812395  0.98793489  0.47811556     0.85000
C74         C  0.95659024  0.99171011  0.52480990     0.91200
C75         C  0.26985409  0.01868380  0.62432292     0.03500
C76         C  0.24345837  0.01801891  0.61314589    -0.12600
C77         C  0.21868986  0.99488763  0.61503065     0.01000
C78         C  0.22066193  0.97206814  0.62811174    -0.11100
C79         C  0.24692432  0.97253475  0.63936399     0.03500
C80         C  0.27141058  0.99590288  0.63745386    -0.10500
H81         H  0.24229220  0.03537510  0.60290493     0.09100
H82         H  0.20189413  0.95382652  0.62947594     0.06700
H83         H  0.29166817  0.99635317  0.64617048     0.06500
C84         C  0.72398302  0.01857741  0.62127285     0.03500
C85         C  0.72303031  0.99367316  0.63328080    -0.12600
C86         C  0.74812866  0.97070337  0.63403485     0.01000
C87         C  0.77476527  0.97351081  0.62302818    -0.11100
C88         C  0.77591772  0.99852088  0.61103227     0.03500
C89         C  0.75031475  0.02076169  0.61012497    -0.10500
H90         H  0.70300957  0.99233835  0.64213850     0.09100
H91         H  0.79424478  0.95588832  0.62358168     0.06700
H92         H  0.75106290  0.04006216  0.60085646     0.06500
O93         O  0.46265741  0.47979910  0.98316135    -0.72500
O94         O  0.53250869  0.47453919  0.01851064    -0.73500
O95         O  0.46351326  0.47790713  0.01892702    -0.62100
O96         O  0.53175615  0.47726676  0.98246935    -0.70500
O97         O  0.53369070  0.53081245  0.98340978    -0.70100
O98         O  0.46593156  0.53137866  0.01971402    -0.61300
O99         O  0.53515085  0.52823448  0.01920345    -0.73900
O100        O  0.46487096  0.53322002  0.98393418    -0.72600
Cu101      Cu  0.49755717  0.47551166  0.00073152     1.04600
Cu102      Cu  0.50000065  0.53273886  0.00160552     1.04300
C103        C  0.45245640  0.50728584  0.97794940     0.93700
C104        C  0.54491630  0.50055543  0.02438751     0.92800
C105        C  0.45374349  0.50487112  0.02507103     0.85000
C106        C  0.54350967  0.50405925  0.97712511     0.91200
C107        C  0.76674599  0.49005879  0.87542887     0.03500
C108        C  0.76678558  0.51417680  0.86293672    -0.12600
C109        C  0.74251662  0.53800029  0.86264672     0.01000
C110        C  0.71738623  0.53705290  0.87458799    -0.11100
C111        C  0.71670108  0.51271954  0.88693744     0.03500
C112        C  0.74156969  0.48945992  0.88739365    -0.10500
H113        H  0.78586320  0.51455423  0.85350890     0.09100
H114        H  0.69835407  0.55518779  0.87426446     0.06700
H115        H  0.74122564  0.47079903  0.89700810     0.06500
C116        C  0.23139319  0.48380528  0.87442387     0.03500
C117        C  0.23216902  0.50822952  0.86216615    -0.12600
C118        C  0.25669401  0.53168584  0.86240789     0.01000
C119        C  0.28056034  0.53073657  0.87496540    -0.11100
C120        C  0.28053686  0.50591485  0.88704643     0.03500
C121        C  0.25580453  0.48249309  0.88674608    -0.10500
H122        H  0.21382494  0.50888657  0.85237518     0.09100
H123        H  0.29913982  0.54933516  0.87534679     0.06700
H124        H  0.25541949  0.46342878  0.89614505     0.06500
O125        O  0.71421493  0.21289979  0.26908808    -0.72500
O126        O  0.71591698  0.28088768  0.23285848    -0.73500
O127        O  0.71320134  0.21240172  0.23326185    -0.62100
O128        O  0.71686223  0.28178169  0.26853153    -0.70500
O129        O  0.77050787  0.28003682  0.26802470    -0.70100
O130        O  0.76680562  0.21060867  0.23265386    -0.61300
O131        O  0.76962965  0.27923458  0.23229519    -0.73900
O132        O  0.76778995  0.21108887  0.26849071    -0.72600
Cu133      Cu  0.71321211  0.24706750  0.25096215     1.04600
Cu134      Cu  0.77054278  0.24514941  0.25037498     1.04300
C135        C  0.74081908  0.20099503  0.27457130     0.93700
C136        C  0.74287399  0.29068490  0.22672577     0.92800
C137        C  0.73936323  0.20053421  0.22722517     0.85000
C138        C  0.74420751  0.29225547  0.27378879     0.91200
O139        O  0.52896605  0.97583397  0.01783516    -0.72500
O140        O  0.46316678  0.98069498  0.98059171    -0.73500
O141        O  0.53178407  0.97813214  0.98207280    -0.62100
O142        O  0.45988167  0.97799866  0.01646311    -0.70500
O143        O  0.46096125  0.03144936  0.01745658    -0.70100
O144        O  0.53467438  0.03167425  0.98364704    -0.61300
O145        O  0.46555859  0.03435740  0.98152764    -0.73900
O146        O  0.52996968  0.02945091  0.01946429    -0.72600
Cu147      Cu  0.49582783  0.97633639  0.99924140     1.04600
Cu148      Cu  0.49778441  0.03361634  0.00057500     1.04300
C149        C  0.54012002  0.00180525  0.02441266     0.93700
C150        C  0.45467707  0.00835853  0.97485599     0.92800
C151        C  0.54478536  0.00483697  0.97749059     0.85000
C152        C  0.44884133  0.00452781  0.02245158     0.91200
C153        C  0.23167258  0.02585438  0.87277780     0.03500
C154        C  0.23169899  0.99998940  0.86130823    -0.12600
C155        C  0.25670218  0.97689798  0.86161386     0.01000
C156        C  0.28153763  0.97951610  0.87366728    -0.11100
C157        C  0.28143455  0.00511081  0.88534241     0.03500
C158        C  0.25645965  0.02819628  0.88485631    -0.10500
H159        H  0.21264275  0.99818691  0.85193183     0.09100
H160        H  0.30092114  0.96176098  0.87393113     0.06700
H161        H  0.25638035  0.04803817  0.89380982     0.06500
C162        C  0.76656781  0.02309111  0.87398716     0.03500
C163        C  0.74290161  0.02280904  0.88674442    -0.12600
C164        C  0.71923369  0.99830668  0.88729377     0.01000
C165        C  0.71910678  0.97416445  0.87474091    -0.11100
C166        C  0.74225052  0.97465059  0.86164935     0.03500
C167        C  0.76606624  0.99908094  0.86147061    -0.10500
H168        H  0.74315458  0.04144547  0.89637044     0.09100
H169        H  0.70081818  0.95528881  0.87505760     0.06700
H170        H  0.78434470  0.99928993  0.85162456     0.06500
O171        O  0.28765794  0.20850566  0.23477634    -0.72500
O172        O  0.28736787  0.27793982  0.27047296    -0.73500
O173        O  0.28421770  0.20893343  0.27083964    -0.62100
O174        O  0.29061700  0.27759396  0.23475562    -0.70500
O175        O  0.23707643  0.27961190  0.23348621    -0.70100
O176        O  0.23062137  0.21139628  0.26937854    -0.61300
O177        O  0.23352235  0.27972894  0.26917524    -0.73900
O178        O  0.23393588  0.21055481  0.23362306    -0.72600
Cu179      Cu  0.28937193  0.24308118  0.25274142     1.04600
Cu180      Cu  0.23198766  0.24535431  0.25133940     1.04300
C181        C  0.26083591  0.19865121  0.22848956     0.93700
C182        C  0.26029170  0.28987684  0.27533714     0.92800
C183        C  0.25626570  0.19963628  0.27601819     0.85000
C184        C  0.26480029  0.28997345  0.22856386     0.91200
C185        C  0.23132240  0.97556795  0.12666001     0.03500
C186        C  0.25520603  0.97716463  0.11407945    -0.12600
C187        C  0.27883333  0.00162756  0.11442228     0.01000
C188        C  0.27823000  0.02481519  0.12732680    -0.11100
C189        C  0.25496325  0.02297973  0.14017196     0.03500
C190        C  0.23156648  0.99824947  0.13988445    -0.10500
H191        H  0.25517510  0.95960159  0.10391683     0.09100
H192        H  0.29607686  0.04413213  0.12745108     0.06700
H193        H  0.21323960  0.99706182  0.14968410     0.06500
C194        C  0.76097764  0.97528466  0.12714087     0.03500
C195        C  0.73663329  0.97478468  0.11474093    -0.12600
C196        C  0.71281983  0.99914146  0.11430856     0.01000
C197        C  0.71320972  0.02388353  0.12642396    -0.11100
C198        C  0.73738610  0.02450854  0.13888191     0.03500
C199        C  0.76084872  0.99990106  0.13933617    -0.10500
H200        H  0.73655388  0.95584835  0.10527761     0.09100
H201        H  0.69489423  0.04274308  0.12608571     0.06700
H202        H  0.77936645  0.00020836  0.14904188     0.06500
C203        C  0.76218691  0.51969509  0.12987917     0.03500
C204        C  0.76184530  0.49468947  0.14181313    -0.12600
C205        C  0.73823983  0.47029592  0.14104687     0.01000
C206        C  0.71487657  0.47079513  0.12819094    -0.11100
C207        C  0.71450693  0.49605711  0.11635058     0.03500
C208        C  0.73844537  0.52034780  0.11714648    -0.10500
H209        H  0.78017705  0.49401365  0.15161571     0.09100
H210        H  0.69670719  0.45182383  0.12756402     0.06700
H211        H  0.73865772  0.53960896  0.10786088     0.06500
C212        C  0.23609112  0.51889710  0.13045849     0.03500
C213        C  0.23695379  0.49371697  0.14240536    -0.12600
C214        C  0.26169395  0.47016816  0.14184794     0.01000
C215        C  0.28582801  0.47242220  0.12939478    -0.11100
C216        C  0.28460582  0.49691122  0.11719778     0.03500
C217        C  0.25979919  0.52012546  0.11776051    -0.10500
H218        H  0.21844160  0.49247014  0.15210503     0.09100
H219        H  0.30560506  0.45511061  0.12914951     0.06700
H220        H  0.25895847  0.53913771  0.10834079     0.06500
C221        C  0.26777528  0.97321322  0.37405900     0.03500
C222        C  0.26656802  0.99851911  0.36229771    -0.12600
C223        C  0.24223580  0.02220283  0.36328325     0.01000
C224        C  0.21890113  0.02048589  0.37617028    -0.11100
C225        C  0.21940391  0.99472076  0.38776456     0.03500
C226        C  0.24409124  0.97136321  0.38673694    -0.10500
H227        H  0.28469605  0.99985743  0.35239858     0.09100
H228        H  0.20004708  0.03874760  0.37696568     0.06700
H229        H  0.24481478  0.95170252  0.39579386     0.06500
C230        C  0.73572175  0.97540946  0.37566535     0.03500
C231        C  0.73353660  0.00107860  0.36412214    -0.12600
C232        C  0.75765434  0.02513563  0.36348712     0.01000
C233        C  0.78366390  0.02393589  0.37496558    -0.11100
C234        C  0.78587201  0.99847631  0.38672468     0.03500
C235        C  0.76199388  0.97418398  0.38689673    -0.10500
H236        H  0.71329900  0.00204699  0.35540167     0.09100
H237        H  0.80222049  0.04255309  0.37466673     0.06700
H238        H  0.76349610  0.95470081  0.39602575     0.06500
C239        C  0.73188896  0.51200852  0.37637340     0.03500
C240        C  0.73192810  0.48728450  0.36426466    -0.12600
C241        C  0.75552767  0.46278048  0.36471560     0.01000
C242        C  0.77963276  0.46349864  0.37723042    -0.11100
C243        C  0.77982041  0.48825760  0.38933629     0.03500
C244        C  0.75596359  0.51247128  0.38886493    -0.10500
H245        H  0.71355228  0.48713053  0.35448115     0.09100
H246        H  0.79837546  0.44506087  0.37743325     0.06700
H247        H  0.75628835  0.53177384  0.39812990     0.06500
C248        C  0.27712781  0.50552443  0.38118867     0.03500
C249        C  0.25198994  0.50489038  0.39312096    -0.12600
C250        C  0.22752073  0.48138966  0.39216279     0.01000
C251        C  0.22804210  0.45835796  0.37917570    -0.11100
C252        C  0.25297213  0.45879121  0.36709125     0.03500
C253        C  0.27748587  0.48238739  0.36816769    -0.10500
H254        H  0.25128206  0.52287896  0.40307472     0.09100
H255        H  0.20895694  0.44032583  0.37838644     0.06700
H256        H  0.29653909  0.48306104  0.35873517     0.06500
N257        N  0.99778206  0.79660892  0.12902732    -0.36200
N258        N  0.94821602  0.74722918  0.13082508    -0.56800
N259        N  0.99880776  0.69705765  0.13167037    -0.36200
N260        N  0.04815200  0.74630245  0.12823335    -0.56800
C261        C  0.97099600  0.81514617  0.12670331     0.27400
C262        C  0.02383245  0.81440260  0.12429016     0.27400
C263        C  0.97212935  0.67893984  0.12848035     0.27400
C264        C  0.02510757  0.67846878  0.12817073     0.27400
C265        C  0.92910119  0.77347162  0.13334993     0.36000
C266        C  0.92945494  0.72089928  0.13365809     0.36000
C267        C  0.06714594  0.77292222  0.12917884     0.36000
C268        C  0.06757930  0.72064143  0.13151376     0.36000
C269        C  0.98021009  0.84531288  0.12067123    -0.21500
C270        C  0.01351781  0.84480054  0.11907826    -0.21500
C271        C  0.98161432  0.64839364  0.12306338    -0.21500
C272        C  0.01503588  0.64808069  0.12291470    -0.21500
C273        C  0.89797506  0.76374515  0.13768306    -0.22500
C274        C  0.89818625  0.73045985  0.13785968    -0.22500
C275        C  0.09884350  0.76409566  0.13291475    -0.22500
C276        C  0.09907412  0.73097488  0.13447414    -0.22500
C277        C  0.93861498  0.80597503  0.13049405    -0.17900
C278        C  0.05678433  0.80492530  0.12577307    -0.17900
C279        C  0.05794453  0.68789074  0.13014120    -0.17900
C280        C  0.93950659  0.68836843  0.13139976    -0.17900
H281        H  0.96459750  0.86566175  0.11778706     0.15000
H282        H  0.02848508  0.86475255  0.11481279     0.15000
H283        H  0.96605073  0.62827710  0.11969274     0.15000
H284        H  0.03019138  0.62779400  0.11932324     0.15000
H285        H  0.87714223  0.77901542  0.14017440     0.13300
H286        H  0.87755169  0.71505741  0.14056526     0.13300
H287        H  0.11971408  0.77984518  0.13421993     0.13300
H288        H  0.12015090  0.71614213  0.13709816     0.13300
H289        H  0.99861349  0.77451568  0.13524721     0.26600
H290        H  0.99903710  0.71944165  0.13765984     0.26600
N291        N  0.49957111  0.79449573  0.36880971    -0.36200
N292        N  0.55161623  0.74704676  0.37037923    -0.56800
N293        N  0.50361136  0.69475637  0.37233457    -0.36200
N294        N  0.45165224  0.74222049  0.37272169    -0.56800
C295        C  0.52525549  0.81465257  0.37094336     0.27400
C296        C  0.47230601  0.81195371  0.37169379     0.27400
C297        C  0.53120545  0.67781257  0.37516966     0.27400
C298        C  0.47824736  0.67541504  0.37654097     0.27400
C299        C  0.56986896  0.77393554  0.36802271     0.36000
C300        C  0.57199111  0.72146557  0.36916781     0.36000
C301        C  0.43125517  0.76728222  0.36997555     0.36000
C302        C  0.43334731  0.71506643  0.37199752     0.36000
C303        C  0.51405626  0.84550433  0.37469777    -0.21500
C304        C  0.48071434  0.84381018  0.37516563    -0.21500
C305        C  0.52325145  0.64709999  0.38098283    -0.21500
C306        C  0.48988823  0.64558413  0.38182763    -0.21500
C307        C  0.60204401  0.76538629  0.36544835    -0.22500
C308        C  0.60337457  0.73219040  0.36610953    -0.22500
C309        C  0.39983097  0.75602908  0.36767454    -0.22500
C310        C  0.40113228  0.72297236  0.36901702    -0.22500
C311        C  0.55855014  0.80620560  0.36955159    -0.17900
C312        C  0.43993689  0.80035486  0.37082632    -0.17900
C313        C  0.44488273  0.68331480  0.37488168    -0.17900
C314        C  0.56336159  0.68872477  0.37210229    -0.17900
H315        H  0.52840372  0.86702386  0.37700484     0.15000
H316        H  0.46451234  0.86378626  0.37789567     0.15000
H317        H  0.53977274  0.62769432  0.38424352     0.15000
H318        H  0.47583992  0.62477002  0.38579704     0.15000
H319        H  0.62253301  0.78142587  0.36356830     0.13300
H320        H  0.62513468  0.71766298  0.36488816     0.13300
H321        H  0.37810618  0.77019621  0.36551884     0.13300
H322        H  0.38060825  0.70669057  0.36805691     0.13300
H323        H  0.50033490  0.77095263  0.36430766     0.26600
H324        H  0.50217407  0.71685914  0.36618321     0.26600
N325        N  0.44921952  0.25375210  0.61899112    -0.36200
N326        N  0.49875444  0.30457546  0.61934916    -0.56800
N327        N  0.54900514  0.25588092  0.61666515    -0.36200
N328        N  0.49924575  0.20501627  0.61795259    -0.56800
C329        C  0.43102916  0.27969754  0.62333416     0.27400
C330        C  0.43140672  0.22695942  0.62240489     0.27400
C331        C  0.56730078  0.28233261  0.62009590     0.27400
C332        C  0.56757073  0.22954958  0.61982164     0.27400
C333        C  0.47194613  0.32331919  0.61822068     0.36000
C334        C  0.52449307  0.32444305  0.61698065     0.36000
C335        C  0.47319435  0.18549658  0.61574659     0.36000
C336        C  0.52577310  0.18664326  0.61499638     0.36000
C337        C  0.40120937  0.26930787  0.62944838    -0.21500
C338        C  0.40148010  0.23600443  0.62889674    -0.21500
C339        C  0.59802616  0.27269596  0.62518934    -0.21500
C340        C  0.59817477  0.23937605  0.62506151    -0.21500
C341        C  0.48073151  0.35528612  0.61532965    -0.22500
C342        C  0.51402595  0.35599957  0.61458684    -0.22500
C343        C  0.48323424  0.15454746  0.61143549    -0.22500
C344        C  0.51656205  0.15523440  0.61103193    -0.22500
C345        C  0.43975983  0.31251763  0.62092260    -0.17900
C346        C  0.44063069  0.19468667  0.61878531    -0.17900
C347        C  0.55818540  0.19692143  0.61737496    -0.17900
C348        C  0.55736797  0.31494854  0.61829263    -0.17900
H349        H  0.38119254  0.28419854  0.63372183     0.15000
H350        H  0.38173266  0.22025426  0.63265411     0.15000
H351        H  0.61820980  0.28806881  0.62872087     0.15000
H352        H  0.61855551  0.22412306  0.62841581     0.15000
H353        H  0.46484361  0.37605476  0.61416465     0.13300
H354        H  0.52884413  0.37738530  0.61277853     0.13300
H355        H  0.46817104  0.13351767  0.60913814     0.13300
H356        H  0.53224371  0.13480207  0.60839681     0.13300
H357        H  0.47076678  0.25451103  0.61218821     0.26600
H358        H  0.52638148  0.25576542  0.61089172     0.26600
N359        N  0.99783746  0.30580447  0.86981890    -0.36200
N360        N  0.94767224  0.25674365  0.87074177    -0.56800
N361        N  0.99753217  0.20673016  0.86959834    -0.36200
N362        N  0.04775942  0.25545473  0.86984765    -0.56800
C363        C  0.97167193  0.32455367  0.87321423     0.27400
C364        C  0.02461941  0.32375327  0.87290329     0.27400
C365        C  0.97099952  0.18915345  0.87386796     0.27400
C366        C  0.02394306  0.18854606  0.87340940     0.27400
C367        C  0.92869772  0.28310625  0.86847193     0.36000
C368        C  0.92852398  0.23060973  0.86819597     0.36000
C369        C  0.06679575  0.28159835  0.86729195     0.36000
C370        C  0.06656077  0.22920587  0.86700965     0.36000
C371        C  0.98197904  0.35501181  0.87829962    -0.21500
C372        C  0.01538841  0.35452298  0.87809140    -0.21500
C373        C  0.98066003  0.15954215  0.88041771    -0.21500
C374        C  0.01407616  0.15916156  0.88012702    -0.21500
C375        C  0.89726087  0.27370353  0.86461767    -0.22500
C376        C  0.89718946  0.24043492  0.86433758    -0.22500
C377        C  0.09795488  0.27196099  0.86290404    -0.22500
C378        C  0.09775107  0.23870302  0.86262023    -0.22500
C379        C  0.93876986  0.31546556  0.87106190    -0.17900
C380        C  0.05710680  0.31393408  0.87011850    -0.17900
C381        C  0.05657482  0.19694838  0.86984318    -0.17900
C382        C  0.93835194  0.19813511  0.87074131    -0.17900
H383        H  0.96699319  0.37556480  0.88165952     0.15000
H384        H  0.03108290  0.37468959  0.88121000     0.15000
H385        H  0.96520365  0.14001208  0.88473461     0.15000
H386        H  0.02936595  0.13931037  0.88418160     0.15000
H387        H  0.87645680  0.28918497  0.86245487     0.13300
H388        H  0.87627583  0.22525259  0.86192009     0.13300
H389        H  0.11875852  0.28727563  0.86040051     0.13300
H390        H  0.11837641  0.22331989  0.85987103     0.13300
H391        H  0.99750986  0.28320911  0.86393599     0.26600
H392        H  0.99747060  0.22780477  0.86256112     0.26600
C393        C  0.38265833  0.61839387  0.36375081    -0.22000
C394        C  0.37206092  0.60883477  0.37978248     0.09900
C395        C  0.38554542  0.62349637  0.39424570     0.10300
C396        C  0.40945974  0.64753549  0.39231693    -0.17000
C397        C  0.42035413  0.65688004  0.37625057    -0.27400
C398        C  0.40658191  0.64228642  0.36177944     0.18700
C399        C  0.34732569  0.58285145  0.38102731     0.12600
C400        C  0.37470755  0.61367889  0.41164903    -0.11700
H401        H  0.41974639  0.65912298  0.40335266     0.12900
C402        C  0.41625343  0.65161043  0.34410126    -0.22600
H403        H  0.37216067  0.60708809  0.35268124     0.08500
C404        C  0.31379415  0.58962773  0.38008863     0.04900
C405        C  0.29145694  0.56390969  0.38049632    -0.19800
C406        C  0.30191842  0.53158676  0.38181649    -0.12100
C407        C  0.33554789  0.52500641  0.38333884     0.13600
C408        C  0.35780703  0.55073153  0.38269664    -0.22500
C409        C  0.30168661  0.62392808  0.37851609    -0.05600
H410        H  0.26569506  0.56897400  0.37945843     0.15100
C411        C  0.34882807  0.49141322  0.38614573    -0.15800
H412        H  0.38360397  0.54572562  0.38360651     0.09500
H413        H  0.39468362  0.66104042  0.33728271     0.07300
H414        H  0.42557787  0.62995355  0.33735868     0.08500
H415        H  0.43540113  0.67046447  0.34370296     0.13200
H416        H  0.38012943  0.58763675  0.41372451     0.02400
H417        H  0.34817180  0.61768175  0.41301187     0.02900
H418        H  0.38728922  0.62789641  0.42157865     0.06400
H419        H  0.27474252  0.62498026  0.37801509     0.05400
H420        H  0.31137545  0.63503526  0.36679864    -0.00400
H421        H  0.30987975  0.63836120  0.38952919     0.01100
H422        H  0.36446833  0.48444903  0.37532868     0.04800
H423        H  0.32964910  0.47283434  0.38768969     0.06700
H424        H  0.36368008  0.49118152  0.39782742     0.07600
C425        C  0.65206282  0.55836229  0.37742620    -0.22000
C426        C  0.66272334  0.58974602  0.37358691     0.09900
C427        C  0.69599661  0.59549415  0.37059924     0.10300
C428        C  0.71801034  0.56960956  0.37166521    -0.17000
C429        C  0.70741279  0.53816024  0.37557763    -0.27400
C430        C  0.67396848  0.53242834  0.37849016     0.18700
C431        C  0.63842189  0.61613022  0.37278834     0.12600
C432        C  0.70814122  0.62884434  0.36617987    -0.11700
H433        H  0.74361450  0.57382670  0.36931700     0.12900
C434        C  0.66057387  0.49960701  0.38312000    -0.22600
H435        H  0.62643460  0.55413637  0.37971867     0.08500
C436        C  0.62029423  0.62192431  0.35801650     0.04900
C437        C  0.59612631  0.64591168  0.35812946    -0.19800
C438        C  0.58991893  0.66429207  0.37266031    -0.12100
C439        C  0.60864633  0.65897163  0.38735216     0.13600
C440        C  0.63260698  0.63479693  0.38724067    -0.22500
C441        C  0.62652389  0.60273748  0.34218896    -0.05600
H442        H  0.58187472  0.65030930  0.34687504     0.15100
C443        C  0.60377674  0.67809548  0.40334216    -0.15800
H444        H  0.64667723  0.63026319  0.39854883     0.09500
H445        H  0.64315266  0.49158536  0.37328794     0.07300
H446        H  0.64760084  0.50128234  0.39536888     0.08500
H447        H  0.67955704  0.48078368  0.38445552     0.07600
H448        H  0.70224366  0.64598724  0.37652005     0.02400
H449        H  0.69640463  0.63727712  0.35437407     0.02900
H450        H  0.73486463  0.62912336  0.36423917     0.06400
H451        H  0.61027892  0.61036506  0.33174814     0.05400
H452        H  0.62232008  0.57658756  0.34462672    -0.00400
H453        H  0.65203843  0.60630588  0.33804027     0.01100
H454        H  0.59721239  0.66138044  0.41376930     0.04800
H455        H  0.58432418  0.69653536  0.40229832     0.06700
H456        H  0.62669564  0.69078857  0.40663176     0.07600
C457        C  0.68998885  0.89604632  0.36969104    -0.22000
C458        C  0.65872795  0.90473030  0.37509780     0.09900
C459        C  0.65320192  0.93624667  0.38140264     0.10300
C460        C  0.67889576  0.95868882  0.38169705    -0.17000
C461        C  0.71006216  0.95017664  0.37604214    -0.27400
C462        C  0.71578169  0.91837020  0.37013775     0.18700
C463        C  0.63206798  0.88056901  0.37366042     0.12600
C464        C  0.62011067  0.94628321  0.38757528    -0.11700
H465        H  0.67464901  0.98308917  0.38624863     0.12900
C466        C  0.74880657  0.90822381  0.36387994    -0.22600
H467        H  0.69407537  0.87177625  0.36492096     0.08500
C468        C  0.61539665  0.87565656  0.35831251     0.04900
C469        C  0.59107402  0.85175049  0.35735408    -0.19800
C470        C  0.58334369  0.83243578  0.37137274    -0.12100
C471        C  0.59981259  0.83771635  0.38680197     0.13600
C472        C  0.62392862  0.86172558  0.38773891    -0.22500
C473        C  0.62352422  0.89554070  0.34295553    -0.05600
H474        H  0.57838477  0.84771556  0.34557294     0.15100
C475        C  0.59262517  0.81839779  0.40249953    -0.15800
H476        H  0.63671597  0.86558266  0.39951446     0.09500
H477        H  0.74872239  0.88289254  0.35915231     0.07300
H478        H  0.76675481  0.90976259  0.37427649     0.08500
H479        H  0.75655856  0.92431512  0.35340316     0.07600
H480        H  0.61259063  0.93051551  0.39822549     0.02400
H481        H  0.60217294  0.94400904  0.37720100     0.02900
H482        H  0.61994071  0.97178612  0.39204939     0.06400
H483        H  0.60792589  0.88904848  0.33205094     0.05400
H484        H  0.64923039  0.89140657  0.33930123    -0.00400
H485        H  0.61993380  0.92165670  0.34574741     0.01100
H486        H  0.61488684  0.80534679  0.40652538     0.04800
H487        H  0.57304766  0.80029049  0.40075082     0.06700
H488        H  0.58494830  0.83505392  0.41274287     0.07600
C489        C  0.36957984  0.85384657  0.38486550    -0.22000
C490        C  0.36427985  0.87202100  0.37019750     0.09900
C491        C  0.38300324  0.86588541  0.35565421     0.10300
C492        C  0.40753305  0.84238832  0.35628439    -0.17000
C493        C  0.41330774  0.82460579  0.37103740    -0.27400
C494        C  0.39373734  0.82995519  0.38545658     0.18700
C495        C  0.33939856  0.89782809  0.37051007     0.12600
C496        C  0.37676533  0.88380360  0.33944674    -0.11700
H497        H  0.42226817  0.83771546  0.34521436     0.12900
C498        C  0.39769211  0.81109550  0.40160781    -0.22600
H499        H  0.35485213  0.85848117  0.39594991     0.08500
C500        C  0.30612485  0.89072950  0.36860404     0.04900
C501        C  0.28335084  0.91591435  0.36974386    -0.19800
C502        C  0.29316191  0.94796785  0.37280890    -0.12100
C503        C  0.32664703  0.95503096  0.37465707     0.13600
C504        C  0.34933951  0.92982374  0.37333984    -0.22500
C505        C  0.29477557  0.85662965  0.36530064    -0.05600
H506        H  0.25771970  0.91062060  0.36823774     0.15100
C507        C  0.33932847  0.98844297  0.37863594    -0.15800
H508        H  0.37498580  0.93503073  0.37490342     0.09500
H509        H  0.37493568  0.79759026  0.40431235     0.07300
H510        H  0.40255295  0.82806109  0.41216746     0.08500
H511        H  0.41793509  0.79344534  0.40115188     0.07600
H512        H  0.38041649  0.91017770  0.34138180     0.02400
H513        H  0.35141341  0.87938894  0.33526759     0.02900
H514        H  0.39337245  0.87573687  0.32923056     0.06400
H515        H  0.26795598  0.85533024  0.36396097     0.05400
H516        H  0.30198346  0.84065948  0.37591692    -0.00400
H517        H  0.30591284  0.84747780  0.35346972     0.01100
H518        H  0.35390322  0.98753279  0.39040069     0.04800
H519        H  0.31987965  0.00656117  0.38061549     0.06700
H520        H  0.35512333  0.99689993  0.36816818     0.07600
C521        C  0.12829529  0.63399859  0.11580084    -0.22000
C522        C  0.13340871  0.61501460  0.13021868     0.09900
C523        C  0.11356578  0.61977253  0.14452958     0.10300
C524        C  0.08882532  0.64327399  0.14406311    -0.17000
C525        C  0.08373705  0.66240899  0.12966224    -0.27400
C526        C  0.10371511  0.65762735  0.11532264     0.18700
C527        C  0.15961648  0.59019767  0.13010645     0.12600
C528        C  0.11879414  0.60019380  0.16032126    -0.11700
H529        H  0.07361331  0.64706417  0.15504733     0.12900
C530        C  0.09962303  0.67682913  0.09929639    -0.22600
H531        H  0.14356025  0.63029482  0.10482210     0.08500
C532        C  0.15360324  0.55801441  0.12494031     0.04900
C533        C  0.17889765  0.53514655  0.12546221    -0.19800
C534        C  0.21011190  0.54375948  0.13095731    -0.12100
C535        C  0.21612591  0.57602716  0.13616621     0.13600
C536        C  0.19079283  0.59884514  0.13562460    -0.22500
C537        C  0.12049592  0.54787695  0.11885045    -0.05600
H538        H  0.17442743  0.51047423  0.12139276     0.15100
C539        C  0.24872534  0.58706765  0.14262946    -0.15800
H540        H  0.19530393  0.62352082  0.13968855     0.09500
H541        H  0.09453449  0.66004527  0.08868705     0.07300
H542        H  0.12236259  0.69032062  0.09656444     0.08500
H543        H  0.07942691  0.69452495  0.09989723     0.07600
H544        H  0.14372533  0.60442672  0.16517672     0.02400
H545        H  0.11573503  0.57401644  0.15755014     0.02900
H546        H  0.10126164  0.60690090  0.17037820     0.06400
H547        H  0.11994396  0.52189838  0.11521138     0.05400
H548        H  0.11360335  0.56250616  0.10766689    -0.00400
H549        H  0.10226344  0.55168098  0.12897119     0.01100
H550        H  0.25824442  0.60665705  0.13440075     0.04800
H551        H  0.26699629  0.56737529  0.14304187     0.06700
H552        H  0.24594629  0.59662844  0.15563733     0.07600
C553        C  0.80854600  0.59903380  0.13440156    -0.22000
C554        C  0.84025846  0.58895219  0.13065258     0.09900
C555        C  0.84635406  0.55600941  0.12712270     0.10300
C556        C  0.82031841  0.53402096  0.12696814    -0.17000
C557        C  0.78842752  0.54420008  0.13038924    -0.27400
C558        C  0.78254468  0.57705562  0.13445048     0.18700
C559        C  0.86649239  0.61356399  0.13039189     0.12600
C560        C  0.88019917  0.54416772  0.12337701    -0.11700
H561        H  0.82478693  0.50873990  0.12407149     0.12900
C562        C  0.74946394  0.58964588  0.13928173    -0.22600
H563        H  0.80409194  0.62428841  0.13738353     0.08500
C564        C  0.86996941  0.63526220  0.11675093     0.04900
C565        C  0.89376189  0.65957402  0.11750464    -0.19800
C566        C  0.91427186  0.66251186  0.13153890    -0.12100
C567        C  0.91117524  0.64034839  0.14507227     0.13600
C568        C  0.88731465  0.61610835  0.14429811    -0.22500
C569        C  0.84889809  0.63240395  0.10130843    -0.05600
H570        H  0.89655670  0.67631792  0.10707315     0.15100
C571        C  0.93224052  0.64184640  0.16058604    -0.15800
H572        H  0.88457306  0.59937094  0.15474164     0.09500
H573        H  0.74165990  0.60831153  0.13005675     0.07300
H574        H  0.75070358  0.60084385  0.15199745     0.08500
H575        H  0.73067854  0.57046495  0.13974128     0.07600
H576        H  0.89608520  0.54840378  0.13446022     0.02400
H577        H  0.89019469  0.55735490  0.11233031     0.02900
H578        H  0.88055091  0.51783320  0.12049292     0.06400
H579        H  0.85532096  0.65081482  0.09165029     0.05400
H580        H  0.82301772  0.63590485  0.10477419    -0.00400
H581        H  0.85201517  0.60802913  0.09560616     0.01100
H582        H  0.91665260  0.64449198  0.17193323     0.04800
H583        H  0.94949997  0.66243965  0.16045605     0.06700
H584        H  0.94644063  0.61907531  0.16168207     0.07600
C585        C  0.87837738  0.87167842  0.14394246    -0.22000
C586        C  0.86210001  0.87759542  0.12872122     0.09900
C587        C  0.87124519  0.86027863  0.11412256     0.10300
C588        C  0.89640108  0.83733028  0.11508229    -0.17000
C589        C  0.91277870  0.83139923  0.13028290    -0.27400
C590        C  0.90362891  0.84880881  0.14492067     0.18700
C591        C  0.83576671  0.90225154  0.12829704     0.12600
C592        C  0.85434961  0.86596243  0.09755852    -0.11700
H593        H  0.90335193  0.82383103  0.10392776     0.12900
C594        C  0.91977374  0.84368557  0.16174418    -0.22600
H595        H  0.87129981  0.88499688  0.15514264     0.08500
C596        C  0.80329716  0.89427428  0.13230464     0.04900
C597        C  0.77918948  0.91838630  0.13152057    -0.19800
C598        C  0.78702355  0.95044692  0.12724500    -0.12100
C599        C  0.81960126  0.95847538  0.12339087     0.13600
C600        C  0.84354109  0.93420434  0.12385002    -0.22500
C601        C  0.79423559  0.86039573  0.13754376    -0.05600
H602        H  0.75421941  0.91236952  0.13453766     0.15100
C603        C  0.82906597  0.99249684  0.11851749    -0.15800
H604        H  0.86851115  0.94015737  0.12080553     0.09500
H605        H  0.90145545  0.83525106  0.17104634     0.07300
H606        H  0.93029043  0.86692594  0.16620720     0.08500
H607        H  0.93957850  0.82552662  0.16125788     0.07600
H608        H  0.85768376  0.89154968  0.09360848     0.02400
H609        H  0.82800382  0.86083262  0.09889721     0.02900
H610        H  0.86415567  0.85010880  0.08744820     0.06400
H611        H  0.76791831  0.85831615  0.14044708     0.05400
H612        H  0.80804403  0.85350624  0.14901546    -0.00400
H613        H  0.80006931  0.84314721  0.12724322     0.01100
H614        H  0.82446527  0.00933544  0.12915139     0.04800
H615        H  0.81473987  0.00035603  0.10739065     0.06700
H616        H  0.85524201  0.99421713  0.11524172     0.07600
C617        C  0.12292183  0.86106470  0.10902889    -0.22000
C618        C  0.13088692  0.87815566  0.12373937     0.09900
C619        C  0.11387380  0.87184523  0.13882745     0.10300
C620        C  0.08967934  0.84800293  0.13900166    -0.17000
C621        C  0.08203807  0.83047065  0.12441930    -0.27400
C622        C  0.09861538  0.83717494  0.10917578     0.18700
C623        C  0.15728732  0.90246894  0.12332124     0.12600
C624        C  0.12136979  0.89025168  0.15475228    -0.11700
H625        H  0.07673042  0.84279170  0.15059646     0.12900
C626        C  0.09117907  0.81971296  0.09294743    -0.22600
H627        H  0.13590086  0.86622476  0.09743370     0.08500
C628        C  0.18977909  0.89379907  0.12671009     0.04900
C629        C  0.21350436  0.91817310  0.12780512    -0.19800
C630        C  0.20536754  0.95090915  0.12547457    -0.12100
C631        C  0.17296383  0.95936124  0.12145822     0.13600
C632        C  0.14928302  0.93500428  0.12058280    -0.22500
C633        C  0.19923069  0.85888093  0.12924738    -0.05600
H634        H  0.23846307  0.91174199  0.13058462     0.15100
C635        C  0.16258209  0.99361446  0.11764757    -0.15800
H636        H  0.12429877  0.94144933  0.11785499     0.09500
H637        H  0.11350083  0.80764933  0.08821521     0.07300
H638        H  0.08274149  0.83745029  0.08337943     0.08500
H639        H  0.07208313  0.80098096  0.09439837     0.07600
H640        H  0.11693107  0.91649318  0.15272900     0.02400
H641        H  0.14717731  0.88654097  0.15830069     0.02900
H642        H  0.10595369  0.88213009  0.16544609     0.06400
H643        H  0.22561653  0.85627107  0.13181518     0.05400
H644        H  0.19340717  0.84476634  0.11772109    -0.00400
H645        H  0.18566082  0.84855130  0.14008923     0.01100
H646        H  0.15210519  0.99464155  0.10476298     0.04800
H647        H  0.18279426  0.01129092  0.11812248     0.06700
H648        H  0.14377901  0.00130311  0.12685521     0.07600
C649        C  0.29497498  0.35506582  0.19749365    -0.22000
C650        C  0.26550254  0.36879089  0.19238238     0.09900
C651        C  0.23616339  0.35676362  0.19903016     0.10300
C652        C  0.23690946  0.33105514  0.21060505    -0.17000
C653        C  0.26637761  0.31689661  0.21589045    -0.27400
C654        C  0.29595143  0.32937281  0.20917035     0.18700
C655        C  0.26570244  0.39507199  0.17960606     0.12600
C656        C  0.20400204  0.37114003  0.19389787    -0.11700
H657        H  0.21409885  0.32214189  0.21559831     0.12900
C658        C  0.32872598  0.31600661  0.21399808    -0.22600
H659        H  0.31736599  0.36454085  0.19224242     0.08500
C660        C  0.26712685  0.42803167  0.18426162     0.04900
C661        C  0.26572807  0.45200055  0.17169028    -0.19800
C662        C  0.26295308  0.44373985  0.15456958    -0.12100
C663        C  0.26138469  0.41060464  0.14994887     0.13600
C664        C  0.26307719  0.38671473  0.16254264    -0.22500
C665        C  0.27007647  0.43782981  0.20248421    -0.05600
H666        H  0.26694206  0.47734532  0.17521376     0.15100
C667        C  0.25626430  0.40025518  0.13190800    -0.15800
H668        H  0.26167016  0.36132321  0.15912358     0.09500
H669        H  0.33287520  0.31940439  0.22771223     0.07300
H670        H  0.34880259  0.32851545  0.20726367     0.08500
H671        H  0.33009386  0.28990260  0.21069409     0.07600
H672        H  0.20072704  0.36874038  0.18006451     0.02400
H673        H  0.20321714  0.39717944  0.19735910     0.02900
H674        H  0.18330690  0.35882757  0.20020457     0.06400
H675        H  0.27082193  0.46458019  0.20395440     0.05400
H676        H  0.29275708  0.42764598  0.20787757    -0.00400
H677        H  0.24898638  0.42854172  0.20974480     0.01100
H678        H  0.25365684  0.37355159  0.13080333     0.04800
H679        H  0.27721097  0.40746756  0.12397741     0.06700
H680        H  0.23377862  0.41155919  0.12690912     0.07600
C681        C  0.28220674  0.14636115  0.19031294    -0.22000
C682        C  0.25721713  0.12335367  0.19084327     0.09900
C683        C  0.23342869  0.12518941  0.20360101     0.10300
C684        C  0.23528758  0.15000605  0.21567274    -0.17000
C685        C  0.26053251  0.17296379  0.21536385    -0.27400
C686        C  0.28415176  0.17126202  0.20236747     0.18700
C687        C  0.25623692  0.09767295  0.17779747     0.12600
C688        C  0.20611347  0.10094200  0.20443997    -0.11700
H689        H  0.21707200  0.15128843  0.22552668     0.12900
C690        C  0.31064863  0.19626041  0.20066871    -0.22600
H691        H  0.30012580  0.14490831  0.18031741     0.08500
C692        C  0.23985186  0.10236437  0.16237011     0.04900
C693        C  0.23910252  0.07714094  0.15051112    -0.19800
C694        C  0.25491558  0.04766151  0.15362356    -0.12100
C695        C  0.27198159  0.04322385  0.16891497     0.13600
C696        C  0.27215438  0.06824676  0.18090090    -0.22500
C697        C  0.22367234  0.13415070  0.15833810    -0.05600
H698        H  0.22661388  0.08058181  0.13861567     0.15100
C699        C  0.29065684  0.01273961  0.17284390    -0.15800
H700        H  0.28502949  0.06491191  0.19269502     0.09500
H701        H  0.29977281  0.22082354  0.19976293     0.07300
H702        H  0.32558912  0.19222399  0.18918964     0.08500
H703        H  0.32716499  0.19510748  0.21169140     0.07600
H704        H  0.21617921  0.07620637  0.20613580     0.02400
H705        H  0.19179952  0.10171806  0.19259321     0.02900
H706        H  0.18938163  0.10600961  0.21511095     0.06400
H707        H  0.21173287  0.13365239  0.14578730     0.05400
H708        H  0.24208455  0.15380985  0.15826179    -0.00400
H709        H  0.20489320  0.13969022  0.16795906     0.01100
H710        H  0.31667380  0.01880768  0.17476492     0.04800
H711        H  0.28918245  0.99438954  0.16267090     0.06700
H712        H  0.28096950  0.00166641  0.18457236     0.07600
C713        C  0.23122529  0.40993105  0.32791489    -0.22000
C714        C  0.25598542  0.38663673  0.32792167     0.09900
C715        C  0.27994655  0.38741562  0.34061790     0.10300
C716        C  0.27826270  0.41118906  0.35326197    -0.17000
C717        C  0.25346304  0.43452616  0.35331880    -0.27400
C718        C  0.22988882  0.43418385  0.34031820     0.18700
C719        C  0.25662388  0.36182817  0.31440133     0.12600
C720        C  0.30736586  0.36327200  0.34071850    -0.11700
H721        H  0.29640154  0.41163752  0.36316002     0.12900
C722        C  0.20372710  0.45955762  0.33878014    -0.22600
H723        H  0.21310429  0.40947291  0.31800229     0.08500
C724        C  0.23964933  0.33230713  0.31606064     0.04900
C725        C  0.24126230  0.30938508  0.30301986    -0.19800
C726        C  0.25961570  0.31523834  0.28841842    -0.12100
C727        C  0.27618233  0.34510926  0.28661498     0.13600
C728        C  0.27457923  0.36796510  0.29971197    -0.22500
C729        C  0.21997198  0.32498551  0.33161636    -0.05600
H730        H  0.22841119  0.28657713  0.30429263     0.15100
C731        C  0.29466953  0.35426803  0.27089016    -0.15800
H732        H  0.28724726  0.39086852  0.29841838     0.09500
H733        H  0.17950146  0.44787319  0.33970031     0.07300
H734        H  0.20580732  0.47170701  0.32633048     0.08500
H735        H  0.20529894  0.47860477  0.34858108     0.07600
H736        H  0.32181475  0.36573053  0.32896065     0.02400
H737        H  0.29749592  0.33829211  0.34150979     0.02900
H738        H  0.32389707  0.36708099  0.35159744     0.06400
H739        H  0.20826445  0.30077602  0.33088415     0.05400
H740        H  0.20059228  0.34345227  0.33314153    -0.00400
H741        H  0.23592187  0.32534706  0.34289014     0.01100
H742        H  0.28433904  0.37692392  0.26557555     0.04800
H743        H  0.29353356  0.33561968  0.26087331     0.06700
H744        H  0.32057040  0.35851566  0.27408957     0.07600
C745        C  0.23717681  0.06835330  0.32196177    -0.22000
C746        C  0.24755771  0.09920317  0.32699642     0.09900
C747        C  0.25429404  0.10524828  0.34415171     0.10300
C748        C  0.25120121  0.07997154  0.35590807    -0.17000
C749        C  0.24176337  0.04882623  0.35079873    -0.27400
C750        C  0.23413621  0.04304893  0.33368886     0.18700
C751        C  0.25047743  0.12509245  0.31414441     0.12600
C752        C  0.26535661  0.13820661  0.34992402    -0.11700
H753        H  0.25698817  0.08425639  0.36905070     0.12900
C754        C  0.22228727  0.01037168  0.32786233    -0.22600
H755        H  0.23155028  0.06409822  0.30879763     0.08500
C756        C  0.27846363  0.12838809  0.30404041     0.04900
C757        C  0.27990414  0.15333256  0.29201100    -0.19800
C758        C  0.25370364  0.17474591  0.28958449    -0.12100
C759        C  0.22586005  0.17165736  0.30010014     0.13600
C760        C  0.22472572  0.14683822  0.31219588    -0.22500
C761        C  0.30667434  0.10543924  0.30590169    -0.05600
H762        H  0.30138010  0.15559277  0.28418869     0.15100
C763        C  0.19745379  0.19464283  0.29907874    -0.15800
H764        H  0.20351874  0.14421975  0.32019814     0.09500
H765        H  0.24118469  0.99170615  0.33006877     0.07300
H766        H  0.19992878  0.00370905  0.33489735     0.08500
H767        H  0.21647708  0.01036070  0.31419063     0.07600
H768        H  0.24641808  0.15651332  0.34702492     0.02400
H769        H  0.28820392  0.14488303  0.34333136     0.02900
H770        H  0.26998376  0.13876370  0.36371193     0.06400
H771        H  0.32696147  0.11177762  0.29726749     0.05400
H772        H  0.29869930  0.08038328  0.30294431    -0.00400
H773        H  0.31596396  0.10625807  0.31903095     0.01100
H774        H  0.17919861  0.18979276  0.30909152     0.04800
H775        H  0.18491652  0.19188567  0.28678860     0.06700
H776        H  0.20600902  0.21997681  0.30066473     0.07600
C777        C  0.84321907  0.07094405  0.88398191    -0.22000
C778        C  0.83984684  0.09760622  0.87314370     0.09900
C779        C  0.81248388  0.09957234  0.86246404     0.10300
C780        C  0.78896033  0.07488003  0.86290628    -0.17000
C781        C  0.79217199  0.04836419  0.87383854    -0.27400
C782        C  0.81969544  0.04621891  0.88440746     0.18700
C783        C  0.86536007  0.12309260  0.87295032     0.12600
C784        C  0.80799316  0.12796443  0.85076295    -0.11700
H785        H  0.76786341  0.07632168  0.85477426     0.12900
C786        C  0.82441447  0.01755304  0.89589903    -0.22600
H787        H  0.86439247  0.06944664  0.89205788     0.08500
C788        C  0.86594255  0.14817208  0.88504521     0.04900
C789        C  0.88999357  0.17223715  0.88402676    -0.19800
C790        C  0.91306359  0.17221692  0.87097131    -0.12100
C791        C  0.91211739  0.14731142  0.85868819     0.13600
C792        C  0.88854503  0.12285295  0.85999172    -0.22500
C793        C  0.84085215  0.14982611  0.89883489    -0.05600
H794        H  0.89076137  0.19132353  0.89340660     0.15100
C795        C  0.93510852  0.14607075  0.84388821    -0.15800
H796        H  0.88780073  0.10375825  0.85061080     0.09500
H797        H  0.84739375  0.01940243  0.90316020     0.07300
H798        H  0.82525510  0.99494552  0.88831899     0.08500
H799        H  0.80399521  0.01603234  0.90501290     0.07600
H800        H  0.82857381  0.12926152  0.84173838     0.02400
H801        H  0.80700061  0.15075723  0.85818256     0.02900
H802        H  0.78517496  0.12592663  0.84338307     0.06400
H803        H  0.84450411  0.17128358  0.90707250     0.05400
H804        H  0.84230230  0.12776816  0.90679933    -0.00400
H805        H  0.81622790  0.15150137  0.89320233     0.01100
H806        H  0.95001595  0.12370269  0.84463428     0.04800
H807        H  0.95170743  0.16715612  0.84325746     0.06700
H808        H  0.92094474  0.14567166  0.83198236     0.07600
C809        C  0.18707119  0.10540852  0.86591484    -0.22000
C810        C  0.15590200  0.09748373  0.87170768     0.09900
C811        C  0.14963690  0.06595979  0.87778448     0.10300
C812        C  0.17461735  0.04276596  0.87755225    -0.17000
C813        C  0.20596345  0.05082188  0.87197133    -0.27400
C814        C  0.21232363  0.08261088  0.86614845     0.18700
C815        C  0.13035500  0.12279582  0.87149644     0.12600
C816        C  0.11698294  0.05724202  0.88506325    -0.11700
H817        H  0.16996074  0.01848478  0.88217332     0.12900
C818        C  0.24529143  0.09331680  0.86000431    -0.22600
H819        H  0.19178925  0.12970260  0.86131444     0.08500
C820        C  0.12952116  0.14756747  0.88373942     0.04900
C821        C  0.10513233  0.17126535  0.88292186    -0.19800
C822        C  0.08175388  0.17095949  0.87003191    -0.12100
C823        C  0.08275725  0.14616517  0.85769531     0.13600
C824        C  0.10694863  0.12227567  0.85867270    -0.22500
C825        C  0.15412443  0.14871175  0.89777242    -0.05600
H826        H  0.10426020  0.19022956  0.89236527     0.15100
C827        C  0.05915850  0.14444923  0.84319509    -0.15800
H828        H  0.10783440  0.10329841  0.84922874     0.09500
H829        H  0.25430618  0.11332152  0.86811136     0.07300
H830        H  0.24328697  0.10223664  0.84684199     0.08500
H831        H  0.26361616  0.07367673  0.86011080     0.07600
H832        H  0.09777057  0.06053762  0.87541213     0.02400
H833        H  0.11168450  0.07310214  0.89603925     0.02900
H834        H  0.11623838  0.03167298  0.88940996     0.06400
H835        H  0.14968467  0.16939333  0.90642843     0.05400
H836        H  0.17891956  0.15142835  0.89245438    -0.00400
H837        H  0.15288689  0.12598255  0.90523423     0.01100
H838        H  0.07278095  0.14444701  0.83110702     0.04800
H839        H  0.04201571  0.16511013  0.84282618     0.06700
H840        H  0.04482890  0.12172209  0.84410391     0.07600
C841        C  0.66539068  0.01734641  0.07431760    -0.22000
C842        C  0.63774331  0.99809348  0.07673209     0.09900
C843        C  0.63515072  0.97863703  0.09130347     0.10300
C844        C  0.66011012  0.97944265  0.10336163    -0.17000
C845        C  0.68761911  0.99901257  0.10105482    -0.27400
C846        C  0.69043362  0.01805680  0.08629267     0.18700
C847        C  0.61199761  0.99864968  0.06370876     0.12600
C848        C  0.60624508  0.95688135  0.09403037    -0.11700
H849        H  0.65818701  0.96479254  0.11466297     0.12900
C850        C  0.71953759  0.03911693  0.08269823    -0.22600
H851        H  0.66739275  0.03197968  0.06300600     0.08500
C852        C  0.58582321  0.02062929  0.06463322     0.04900
C853        C  0.56257152  0.02099859  0.05168995    -0.19800
C854        C  0.56504166  0.99998586  0.03781471    -0.12100
C855        C  0.59181733  0.97854844  0.03671879     0.13600
C856        C  0.61484055  0.97800868  0.04977118    -0.22500
C857        C  0.58279203  0.04401333  0.07913410    -0.05600
H858        H  0.54232971  0.03773811  0.05241216     0.15100
C859        C  0.59716155  0.95738670  0.02146833    -0.15800
H860        H  0.63546417  0.96174532  0.04901595     0.09500
H861        H  0.71162713  0.06469314  0.08130135     0.07300
H862        H  0.73116124  0.03113971  0.07075997     0.08500
H863        H  0.73813678  0.03812162  0.09277342     0.07600
H864        H  0.60425028  0.93943271  0.08343001     0.02400
H865        H  0.58369949  0.97154353  0.09468979     0.02900
H866        H  0.60837866  0.94284737  0.10592885     0.06400
H867        H  0.56110989  0.05981556  0.07781443     0.05400
H868        H  0.60463721  0.05975723  0.07966468    -0.00400
H869        H  0.58058438  0.03051495  0.09117652     0.01100
H870        H  0.59781159  0.97256961  0.00990516     0.04800
H871        H  0.57739957  0.93923559  0.02042138     0.06700
H872        H  0.62048905  0.94396056  0.02223912     0.07600
C873        C  0.35976183  0.00220236  0.09127262    -0.22000
C874        C  0.34951177  0.00725497  0.07463856     0.09900
C875        C  0.31611705  0.01075407  0.07112728     0.10300
C876        C  0.29359221  0.00879300  0.08438226    -0.17000
C877        C  0.30377356  0.00339076  0.10103772    -0.27400
C878        C  0.33731720  0.99993922  0.10453671     0.18700
C879        C  0.37413391  0.00717221  0.06100499     0.12600
C880        C  0.30434317  0.01650742  0.05340699    -0.11700
H881        H  0.26789305  0.01154270  0.08176873     0.12900
C882        C  0.35028777  0.99265347  0.12191407    -0.22600
H883        H  0.38545457  0.99927223  0.09385993     0.08500
C884        C  0.39071889  0.03552476  0.05620815     0.04900
C885        C  0.41444596  0.03388697  0.04348613    -0.19800
C886        C  0.42232847  0.00441597  0.03544230    -0.12100
C887        C  0.40497618  0.97597596  0.04024262     0.13600
C888        C  0.38123726  0.97788611  0.05295697    -0.22500
C889        C  0.38350056  0.06743134  0.06463875    -0.05600
H890        H  0.42721487  0.05584455  0.04001178     0.15100
C891        C  0.41071480  0.94344405  0.03211645    -0.15800
H892        H  0.36811538  0.95629926  0.05675640     0.09500
H893        H  0.36622476  0.01280073  0.12610207     0.07300
H894        H  0.36476214  0.96997191  0.12150702     0.08500
H895        H  0.33103036  0.98913851  0.13149264     0.07600
H896        H  0.31143544  0.99583844  0.04524462     0.02400
H897        H  0.31527933  0.03908730  0.04834618     0.02900
H898        H  0.27750225  0.01904160  0.05288972     0.06400
H899        H  0.39835494  0.08740788  0.05928795     0.05400
H900        H  0.38886475  0.06566921  0.07832355    -0.00400
H901        H  0.35749593  0.07371688  0.06293387     0.01100
H902        H  0.43590074  0.93518605  0.03462378     0.04800
H903        H  0.40637884  0.94513285  0.01833082     0.06700
H904        H  0.39410644  0.92456364  0.03716778     0.07600
C905        C  0.62434183  0.02070717  0.95390914    -0.22000
C906        C  0.62055763  0.00064275  0.93976409     0.09900
C907        C  0.59193176  0.98207020  0.93810966     0.10300
C908        C  0.56788922  0.98376381  0.95068612    -0.17000
C909        C  0.57126593  0.00429674  0.96471074    -0.27400
C910        C  0.59992555  0.02305280  0.96631920     0.18700
C911        C  0.64617528  0.00049444  0.92645628     0.12600
C912        C  0.58656381  0.96080483  0.92293945    -0.11700
H913        H  0.54598276  0.96941306  0.94938841     0.12900
C914        C  0.60523388  0.04503188  0.98122907    -0.22600
H915        H  0.64633619  0.03496050  0.95509187     0.08500
C916        C  0.64596400  0.02341864  0.91324447     0.04900
C917        C  0.66992378  0.02192858  0.90060353    -0.19800
C918        C  0.69446300  0.99830986  0.90096671    -0.12100
C919        C  0.69531220  0.97598671  0.91452895     0.13600
C920        C  0.67095385  0.97715823  0.92700106    -0.22500
C921        C  0.62051993  0.04959522  0.91258787    -0.05600
H922        H  0.66958935  0.03935106  0.89037823     0.15100
C923        C  0.72197481  0.95125147  0.91648040    -0.15800
H924        H  0.67142395  0.95988366  0.93729669     0.09500
H925        H  0.62957732  0.05661905  0.98086140     0.07300
H926        H  0.60336730  0.03091570  0.99311094     0.08500
H927        H  0.58681358  0.06465041  0.98124534     0.07600
H928        H  0.60606433  0.94229752  0.92217770     0.02400
H929        H  0.58690372  0.97575655  0.91130554     0.02900
H930        H  0.56282467  0.94805338  0.92355115     0.06400
H931        H  0.62362133  0.06543280  0.90138252     0.05400
H932        H  0.62227054  0.06496551  0.92404002    -0.00400
H933        H  0.59595735  0.03856107  0.91200568     0.01100
H934        H  0.73470553  0.95530209  0.92863775     0.04800
H935        H  0.74039756  0.95244087  0.90630572     0.06700
H936        H  0.71131985  0.92654624  0.91650112     0.07600
C937        C  0.41020549  0.99113874  0.93374260    -0.22000
C938        C  0.38414086  0.01285454  0.93493674     0.09900
C939        C  0.38270339  0.03466883  0.94862045     0.10300
C940        C  0.40643534  0.03303177  0.96130362    -0.17000
C941        C  0.43185414  0.01039375  0.96049038    -0.27400
C942        C  0.43463003  0.99026261  0.94607356     0.18700
C943        C  0.35807971  0.01163990  0.92202368     0.12600
C944        C  0.35626756  0.05980152  0.94975696    -0.11700
H945        H  0.40478327  0.04911033  0.97207746     0.12900
C946        C  0.46366082  0.96888922  0.94273332    -0.22600
H947        H  0.41168383  0.97496629  0.92299460     0.08500
C948        C  0.36261914  0.02380686  0.90554435     0.04900
C949        C  0.33704938  0.02167073  0.89383915    -0.19800
C950        C  0.30722755  0.00749067  0.89825714    -0.12100
C951        C  0.30267417  0.99557254  0.91480388     0.13600
C952        C  0.32821959  0.99767712  0.92643470    -0.22500
C953        C  0.39428340  0.03918654  0.90038173    -0.05600
H954        H  0.34032716  0.03096198  0.88116650     0.15100
C955        C  0.27134826  0.98026868  0.92059218    -0.15800
H956        H  0.32485854  0.98824243  0.93907888     0.09500
H957        H  0.47465092  0.97568592  0.93043418     0.07300
H958        H  0.45587123  0.94317060  0.94214361     0.08500
H959        H  0.48306307  0.97126710  0.95228955     0.07600
H960        H  0.33219116  0.04785556  0.95068003     0.02400
H961        H  0.35684766  0.07539229  0.93834790     0.02900
H962        H  0.35930691  0.07559299  0.96098328     0.06400
H963        H  0.39350628  0.04805885  0.88716781     0.05400
H964        H  0.41426106  0.02124124  0.90135721    -0.00400
H965        H  0.39964804  0.06009411  0.90873598     0.01100
H966        H  0.27607647  0.95498757  0.92469181     0.04800
H967        H  0.25248982  0.97955965  0.91064189     0.06700
H968        H  0.26145559  0.99416803  0.93142767     0.07600
C969        C  0.71869150  0.34453566  0.18970537    -0.22000
C970        C  0.74568191  0.36496965  0.18859538     0.09900
C971        C  0.77235087  0.36023735  0.19943460     0.10300
C972        C  0.77078922  0.33578384  0.21171867    -0.17000
C973        C  0.74329250  0.31568187  0.21324323    -0.27400
C974        C  0.71720049  0.31970269  0.20173688     0.18700
C975        C  0.74470053  0.39184464  0.17630380     0.12600
C976        C  0.80249302  0.38072219  0.19786803    -0.11700
H977        H  0.79106697  0.33256937  0.22026167     0.12900
C978        C  0.68808426  0.29752560  0.20159677    -0.22600
H979        H  0.69857275  0.34821719  0.18110209     0.08500
C980        C  0.75132431  0.38677122  0.15906313     0.04900
C981        C  0.74855543  0.41280704  0.14779334    -0.19800
C982        C  0.73892682  0.44357672  0.15339480    -0.12100
C983        C  0.73144683  0.44840622  0.17062773     0.13600
C984        C  0.73480479  0.42248468  0.18190530    -0.22500
C985        C  0.76137580  0.35395290  0.15262025    -0.05600
H986        H  0.75415552  0.40925859  0.13456292     0.15100
C987        C  0.71896576  0.48014833  0.17744618    -0.15800
H988        H  0.72902599  0.42599585  0.19512412     0.09500
H989        H  0.67158508  0.30286381  0.19087579     0.07300
H990        H  0.67378240  0.30060281  0.21334441     0.08500
H991        H  0.69616442  0.27196709  0.20033881     0.07600
H992        H  0.79633874  0.40664501  0.19976286     0.02400
H993        H  0.81320547  0.37753223  0.18512038     0.02900
H994        H  0.82112614  0.37387027  0.20733972     0.06400
H995        H  0.76595552  0.35427459  0.13881880     0.05400
H996        H  0.74187610  0.33602977  0.15517038    -0.00400
H997        H  0.78400489  0.34610588  0.15903252     0.01100
H998        H  0.69497912  0.47621620  0.18353727     0.04800
H999        H  0.71568839  0.49881667  0.16755369     0.06700
H1000       H  0.73618852  0.48966902  0.18700097     0.07600
C1001       C  0.71058267  0.14036464  0.19354753    -0.22000
C1002       C  0.73986602  0.12517373  0.18941015     0.09900
C1003       C  0.76883860  0.13505082  0.19727618     0.10300
C1004       C  0.76772756  0.15944251  0.20956627    -0.17000
C1005       C  0.73834540  0.17480099  0.21400444    -0.27400
C1006       C  0.70932466  0.16525978  0.20560053     0.18700
C1007       C  0.73954705  0.09909863  0.17663703     0.12600
C1008       C  0.80092886  0.11995819  0.19260043    -0.11700
H1009       H  0.79013476  0.16652586  0.21569694     0.12900
C1010       C  0.67695703  0.18123802  0.20882126    -0.22600
H1011       H  0.68857289  0.13270327  0.18719410     0.08500
C1012       C  0.73359176  0.06659107  0.18114660     0.04900
C1013       C  0.73308303  0.04276247  0.16853281    -0.19800
C1014       C  0.73826632  0.05080895  0.15154004    -0.12100
C1015       C  0.74449524  0.08346060  0.14708212     0.13600
C1016       C  0.74483713  0.10721381  0.15971913    -0.22500
C1017       C  0.72779279  0.05715821  0.19924859    -0.05600
H1018       H  0.72842740  0.01773268  0.17190475     0.15100
C1019       C  0.75168567  0.09409163  0.12927874    -0.15800
H1020       H  0.74954472  0.13226024  0.15638062     0.09500
H1021       H  0.66933928  0.17721597  0.22208040     0.07300
H1022       H  0.65753487  0.17118089  0.20063311     0.08500
H1023       H  0.67867764  0.20758702  0.20613140     0.07600
H1024       H  0.80605614  0.12438762  0.17904851     0.02400
H1025       H  0.80011748  0.09345200  0.19491654     0.02900
H1026       H  0.82126864  0.13025862  0.20007038     0.06400
H1027       H  0.72323683  0.03075708  0.20057627     0.05400
H1028       H  0.70630287  0.07029268  0.20423332    -0.00400
H1029       H  0.74938570  0.06344144  0.20695803     0.01100
H1030       H  0.73260414  0.11122295  0.12500004     0.04800
H1031       H  0.75288741  0.07374611  0.12021028     0.06700
H1032       H  0.77556327  0.10659107  0.12891632     0.07600
C1033       C  0.72256960  0.36252786  0.30327938    -0.22000
C1034       C  0.75196958  0.36664085  0.31184633     0.09900
C1035       C  0.77880607  0.34708446  0.30770388     0.10300
C1036       C  0.77543449  0.32317800  0.29526985    -0.17000
C1037       C  0.74582633  0.31839722  0.28673024    -0.27400
C1038       C  0.71909248  0.33889495  0.29067114     0.18700
C1039       C  0.75394190  0.39140806  0.32528282     0.12600
C1040       C  0.81107984  0.35171328  0.31630946    -0.11700
H1041       H  0.79613700  0.30799498  0.29231662     0.12900
C1042       C  0.68702190  0.33684296  0.28155161    -0.22600
H1043       H  0.70221443  0.37799366  0.30652297     0.08500
C1044       C  0.75777915  0.42453957  0.32146852     0.04900
C1045       C  0.75873148  0.44713504  0.33465922    -0.19800
C1046       C  0.75554608  0.43737650  0.35154955    -0.12100
C1047       C  0.75146624  0.40407976  0.35532873     0.13600
C1048       C  0.75109940  0.38150627  0.34211428    -0.22500
C1049       C  0.76093978  0.43597542  0.30350610    -0.05600
H1050       H  0.76181028  0.47263721  0.33179627     0.15100
C1051       C  0.74606131  0.39150924  0.37295926    -0.15800
H1052       H  0.74781622  0.35599740  0.34492302     0.09500
H1053       H  0.66987304  0.35600391  0.28574077     0.07300
H1054       H  0.67526215  0.31315377  0.28410381     0.08500
H1055       H  0.69089320  0.34000282  0.26779028     0.07600
H1056       H  0.80847699  0.34738191  0.33005426     0.02400
H1057       H  0.81982700  0.37684302  0.31420399     0.02900
H1058       H  0.82976011  0.33476167  0.31138141     0.06400
H1059       H  0.76408253  0.46266572  0.30276772     0.05400
H1060       H  0.73876656  0.42946364  0.29631212    -0.00400
H1061       H  0.78237249  0.42437905  0.29751892     0.01100
H1062       H  0.72284065  0.37783989  0.37342328     0.04800
H1063       H  0.74448522  0.41090104  0.38255787     0.06700
H1064       H  0.76621178  0.37494891  0.37645325     0.07600
C1065       C  0.71525931  0.13813967  0.30799174    -0.22000
C1066       C  0.74565818  0.12654989  0.31317063     0.09900
C1067       C  0.77400249  0.13950844  0.30584538     0.10300
C1068       C  0.77139623  0.16341477  0.29334793    -0.17000
C1069       C  0.74104900  0.17534890  0.28797398    -0.27400
C1070       C  0.71245716  0.16247248  0.29558911     0.18700
C1071       C  0.74761033  0.10076483  0.32626374     0.12600
C1072       C  0.80716656  0.12848968  0.31145884    -0.11700
H1073       H  0.79350152  0.17292762  0.28782755     0.12900
C1074       C  0.67887789  0.17401411  0.29095318    -0.22600
H1075       H  0.69360302  0.12807983  0.31375159     0.08500
C1076       C  0.74497792  0.10791746  0.34362563     0.04900
C1077       C  0.74902365  0.08295957  0.35555651    -0.19800
C1078       C  0.75567527  0.05101520  0.35049590    -0.12100
C1079       C  0.75880410  0.04405057  0.33308149     0.13600
C1080       C  0.75432317  0.06891033  0.32121767    -0.22500
C1081       C  0.73823913  0.14194092  0.34951445    -0.05600
H1082       H  0.74665808  0.08828939  0.36888318     0.15100
C1083       C  0.76786267  0.01093845  0.32656512    -0.15800
H1084       H  0.75685299  0.06356003  0.30789503     0.09500
H1085       H  0.65973946  0.16136789  0.29832176     0.07300
H1086       H  0.67412093  0.16920441  0.27740765     0.08500
H1087       H  0.67657669  0.20031880  0.29362921     0.07600
H1088       H  0.81010002  0.10219426  0.30898675     0.02400
H1089       H  0.81008713  0.13313735  0.32516332     0.02900
H1090       H  0.82686239  0.14149915  0.30468603     0.06400
H1091       H  0.73736767  0.14351958  0.36348531     0.05400
H1092       H  0.71447759  0.15022206  0.34450678    -0.00400
H1093       H  0.75765714  0.15843247  0.34494448     0.01100
H1094       H  0.74787162  0.00135022  0.31861755     0.04800
H1095       H  0.77286300  0.99320980  0.33672288     0.06700
H1096       H  0.79021485  0.01283340  0.31877764     0.07600
C1097       C  0.14876795  0.44329495  0.87686562    -0.22000
C1098       C  0.15708215  0.41117025  0.87326910     0.09900
C1099       C  0.18966510  0.40285135  0.86992513     0.10300
C1100       C  0.21356694  0.42700525  0.87060069    -0.17000
C1101       C  0.20532339  0.45926524  0.87416288    -0.27400
C1102       C  0.17254630  0.46757634  0.87731903     0.18700
C1103       C  0.13113160  0.38663654  0.87278366     0.12600
C1104       C  0.19900068  0.36862218  0.86544055    -0.11700
H1105       H  0.23871262  0.42085716  0.86809428     0.12900
C1106       C  0.16267362  0.50176412  0.88159620    -0.22600
H1107       H  0.12356973  0.44930312  0.87932798     0.08500
C1108       C  0.12236449  0.36890459  0.88728446     0.04900
C1109       C  0.09839860  0.34494702  0.88598525    -0.19800
C1110       C  0.08266375  0.33908813  0.87061482    -0.12100
C1111       C  0.09090055  0.35746254  0.85620529     0.13600
C1112       C  0.11522497  0.38100726  0.85747331    -0.22500
C1113       C  0.13799096  0.37560075  0.90409101    -0.05600
H1114       H  0.09157541  0.33095713  0.89700269     0.15100
C1115       C  0.07462388  0.35279521  0.83937067    -0.15800
H1116       H  0.12193975  0.39501912  0.84644036     0.09500
H1117       H  0.13627749  0.50353590  0.88436377     0.07300
H1118       H  0.16792700  0.51817320  0.87086749     0.08500
H1119       H  0.17617813  0.51012080  0.89289685     0.07600
H1120       H  0.18603180  0.36105941  0.85381782     0.02400
H1121       H  0.19234841  0.35199435  0.87588560     0.02900
H1122       H  0.22550588  0.36631044  0.86311584     0.06400
H1123       H  0.12824661  0.35952194  0.91412448     0.05400
H1124       H  0.13325252  0.40108834  0.90783592    -0.00400
H1125       H  0.16460652  0.37167454  0.90323665     0.01100
H1126       H  0.06268059  0.37574591  0.83551654     0.04800
H1127       H  0.05592310  0.33348230  0.83951644     0.06700
H1128       H  0.09313505  0.34621126  0.82977676     0.07600
C1129       C  0.84853189  0.44668229  0.87496052    -0.22000
C1130       C  0.83870802  0.41434257  0.87316071     0.09900
C1131       C  0.80522929  0.40688720  0.87282026     0.10300
C1132       C  0.78238620  0.43208511  0.87390196    -0.17000
C1133       C  0.79217374  0.46455039  0.87546665    -0.27400
C1134       C  0.82576340  0.47184634  0.87638513     0.18700
C1135       C  0.86402512  0.38873152  0.87225789     0.12600
C1136       C  0.79357874  0.37247682  0.87096373    -0.11700
H1137       H  0.75668732  0.42649033  0.87324607     0.12900
C1138       C  0.83852378  0.50556046  0.87950902    -0.22600
H1139       H  0.87424502  0.45225565  0.87561277     0.08500
C1140       C  0.88358196  0.38449434  0.85777494     0.04900
C1141       C  0.90809743  0.36078975  0.85784646    -0.19800
C1142       C  0.91329371  0.34107130  0.87200274    -0.12100
C1143       C  0.89357329  0.34523199  0.88646748     0.13600
C1144       C  0.86925056  0.36904549  0.88640301    -0.22500
C1145       C  0.87812575  0.40447903  0.84214264    -0.05600
H1146       H  0.92308667  0.35731342  0.84675045     0.15100
C1147       C  0.89764195  0.32516618  0.90219687    -0.15800
H1148       H  0.85437594  0.37248147  0.89755037     0.09500
H1149       H  0.85288581  0.51371216  0.86844033     0.07300
H1150       H  0.85452752  0.50534730  0.89077460     0.08500
H1151       H  0.81909450  0.52349825  0.88197450     0.07600
H1152       H  0.80179633  0.35778286  0.88186800     0.02400
H1153       H  0.80344892  0.36188843  0.85915735     0.02900
H1154       H  0.76665009  0.37107768  0.87042825     0.06400
H1155       H  0.89493470  0.39741997  0.83181500     0.05400
H1156       H  0.88217842  0.43049987  0.84494162    -0.00400
H1157       H  0.85284236  0.40102099  0.83761968     0.01100
H1158       H  0.90256565  0.34135758  0.91307705     0.04800
H1159       H  0.91792331  0.30760494  0.90133413     0.06700
H1160       H  0.87493085  0.31144136  0.90466926     0.07600
C1161       C  0.38743659  0.53074419  0.05632464    -0.22000
C1162       C  0.38228577  0.50168373  0.06501913     0.09900
C1163       C  0.40019150  0.47391617  0.06055106     0.10300
C1164       C  0.42282922  0.47576773  0.04736606    -0.17000
C1165       C  0.42861808  0.50494201  0.03865798    -0.27400
C1166       C  0.41045467  0.53292586  0.04326720     0.18700
C1167       C  0.35755103  0.50070126  0.07858574     0.12600
C1168       C  0.39594533  0.44249616  0.06997406    -0.11700
H1169       H  0.43652481  0.45426357  0.04407695     0.12900
C1170       C  0.41449982  0.56509015  0.03448711    -0.22600
H1171       H  0.37332508  0.55187065  0.05984385     0.08500
C1172       C  0.36367638  0.51376466  0.09472300     0.04900
C1173       C  0.33927151  0.51240652  0.10707849    -0.19800
C1174       C  0.30918210  0.49790663  0.10367565    -0.12100
C1175       C  0.30333660  0.48417443  0.08763307     0.13600
C1176       C  0.32751640  0.48608973  0.07522233    -0.22500
C1177       C  0.39614427  0.52842600  0.09899330    -0.05600
H1178       H  0.34370339  0.52247624  0.11948949     0.15100
C1179       C  0.27218545  0.46691294  0.08327039    -0.15800
H1180       H  0.32304902  0.47582107  0.06285414     0.09500
H1181       H  0.39717990  0.58352743  0.03932284     0.07300
H1182       H  0.40997896  0.56225327  0.02076682     0.08500
H1183       H  0.43935341  0.57462616  0.03665005     0.07600
H1184       H  0.37056747  0.43378360  0.06870798     0.02400
H1185       H  0.40156290  0.44625469  0.08352506     0.02900
H1186       H  0.41231144  0.42327720  0.06508413     0.06400
H1187       H  0.39692908  0.53720682  0.11222511     0.05400
H1188       H  0.40117698  0.54930692  0.09057557    -0.00400
H1189       H  0.41551382  0.50996409  0.09737209     0.01100
H1190       H  0.26033338  0.47929597  0.07248022     0.04800
H1191       H  0.25463953  0.46617333  0.09386793     0.06700
H1192       H  0.27770613  0.44152728  0.07961707     0.07600
C1193       C  0.64101931  0.52065609  0.09006598    -0.22000
C1194       C  0.64147220  0.49689775  0.07742638     0.09900
C1195       C  0.66588232  0.47290190  0.07763680     0.10300
C1196       C  0.68922027  0.47304564  0.09056599    -0.17000
C1197       C  0.68897603  0.49694382  0.10316772    -0.27400
C1198       C  0.66434974  0.52089556  0.10300415     0.18700
C1199       C  0.61637455  0.49760341  0.06396326     0.12600
C1200       C  0.66731279  0.44728272  0.06413572    -0.11700
H1201       H  0.70800271  0.45464483  0.09075264     0.12900
C1202       C  0.66142087  0.54649331  0.11648308    -0.22600
H1203       H  0.62215764  0.53898424  0.08991042     0.08500
C1204       C  0.58589336  0.48241453  0.06604112     0.04900
C1205       C  0.56333755  0.48299444  0.05272506    -0.19800
C1206       C  0.57049687  0.49866909  0.03744638    -0.12100
C1207       C  0.60147596  0.51293373  0.03520346     0.13600
C1208       C  0.62382777  0.51257678  0.04857619    -0.22500
C1209       C  0.57720796  0.46573084  0.08231937    -0.05600
H1210       H  0.53973557  0.47176233  0.05436369     0.15100
C1211       C  0.61233148  0.52745294  0.01869019    -0.15800
H1212       H  0.64754441  0.52354457  0.04688299     0.09500
H1213       H  0.63696116  0.54509593  0.12234690     0.07300
H1214       H  0.66457347  0.57082334  0.11074502     0.08500
H1215       H  0.67947823  0.54376146  0.12672406     0.07600
H1216       H  0.67072121  0.45887535  0.05162638     0.02400
H1217       H  0.64435259  0.43317279  0.06406302     0.02900
H1218       H  0.68774663  0.43018370  0.06620186     0.06400
H1219       H  0.55259063  0.45475611  0.08179727     0.05400
H1220       H  0.57762674  0.48350887  0.09281964    -0.00400
H1221       H  0.59497173  0.44615408  0.08497159     0.01100
H1222       H  0.61776842  0.55356879  0.02046543     0.04800
H1223       H  0.59404218  0.52501085  0.00853204     0.06700
H1224       H  0.63471918  0.51496381  0.01433795     0.07600
C1225       C  0.38684123  0.53669873  0.94707440    -0.22000
C1226       C  0.37649790  0.50727703  0.94018743     0.09900
C1227       C  0.39060521  0.47810742  0.94573362     0.10300
C1228       C  0.41524581  0.47904325  0.95793616    -0.17000
C1229       C  0.42614679  0.50852958  0.96493289    -0.27400
C1230       C  0.41132606  0.53784924  0.95941353     0.18700
C1231       C  0.35154072  0.50754300  0.92675414     0.12600
C1232       C  0.37939515  0.44595920  0.93884687    -0.11700
H1233       H  0.42601074  0.45640590  0.96199436     0.12900
C1234       C  0.42067770  0.57055068  0.96634620    -0.22600
H1235       H  0.37569342  0.55893679  0.94267162     0.08500
C1236       C  0.31809163  0.50926815  0.93050289     0.04900
C1237       C  0.29546603  0.50811626  0.91728296    -0.19800
C1238       C  0.30559195  0.50537771  0.90042511    -0.12100
C1239       C  0.33922134  0.50362482  0.89672799     0.13600
C1240       C  0.36172775  0.50515616  0.90995187    -0.22500
C1241       C  0.30635942  0.51225290  0.94842209    -0.05600
H1242       H  0.26973501  0.50975457  0.92007869     0.15100
C1243       C  0.35228994  0.49909813  0.87912383    -0.15800
H1244       H  0.38748860  0.50372734  0.90717595     0.09500
H1245       H  0.40596722  0.59036667  0.96074180     0.07300
H1246       H  0.44653244  0.57573630  0.96342205     0.08500
H1247       H  0.41660043  0.57110194  0.98018336     0.07600
H1248       H  0.38358487  0.44502854  0.92502954     0.02400
H1249       H  0.35306985  0.44276523  0.94142414     0.02900
H1250       H  0.39261647  0.42537731  0.94468997     0.06400
H1251       H  0.27943504  0.51341736  0.94912855     0.05400
H1252       H  0.31626856  0.53469054  0.95417128    -0.00400
H1253       H  0.31460051  0.49098759  0.95584294     0.01100
H1254       H  0.36605587  0.52103389  0.87528671     0.04800
H1255       H  0.33304831  0.49436324  0.86970589     0.06700
H1256       H  0.36889889  0.47790844  0.87886833     0.07600
C1257       C  0.61435873  0.48222031  0.94799620    -0.22000
C1258       C  0.61665979  0.51035340  0.93818885     0.09900
C1259       C  0.59454428  0.53589390  0.94086468     0.10300
C1260       C  0.57071812  0.53279447  0.95343916    -0.17000
C1261       C  0.56842485  0.50474717  0.96349392    -0.27400
C1262       C  0.59061596  0.47901893  0.96063403     0.18700
C1263       C  0.64235034  0.51223959  0.92509815     0.12600
C1264       C  0.59650091  0.56664269  0.93067925    -0.11700
H1265       H  0.55380851  0.55254589  0.95544944     0.12900
C1266       C  0.59027410  0.44852669  0.97108420    -0.22600
H1267       H  0.63145447  0.46270350  0.94577308     0.08500
C1268       C  0.67508322  0.51831168  0.92933756     0.04900
C1269       C  0.69877202  0.51821881  0.91659429    -0.19800
C1270       C  0.69049244  0.51212637  0.89973025    -0.12100
C1271       C  0.65765654  0.50593096  0.89550435     0.13600
C1272       C  0.63397557  0.50639893  0.90824621    -0.22500
C1273       C  0.68493704  0.52518932  0.94726648    -0.05600
H1274       H  0.72391849  0.52305475  0.91977191     0.15100
C1275       C  0.64685334  0.49759470  0.87787583    -0.15800
H1276       H  0.60884908  0.50139793  0.90507930     0.09500
H1277       H  0.61050075  0.43198167  0.96764796     0.07300
H1278       H  0.56722827  0.43516309  0.96901960     0.08500
H1279       H  0.59291880  0.45470689  0.98464101     0.07600
H1280       H  0.59318831  0.56112175  0.91709558     0.02400
H1281       H  0.62059211  0.57817922  0.93256616     0.02900
H1282       H  0.57747462  0.58430055  0.93444913     0.06400
H1283       H  0.71140882  0.52997942  0.94833176     0.05400
H1284       H  0.67906277  0.50408555  0.95538418    -0.00400
H1285       H  0.67171522  0.54682338  0.95197107     0.01100
H1286       H  0.63411583  0.47387294  0.87800418     0.04800
H1287       H  0.66725887  0.49559528  0.86882783     0.06700
H1288       H  0.62982928  0.51644974  0.87324345     0.07600
C1289       C  0.64465044  0.06384973  0.61484226    -0.22000
C1290       C  0.65397265  0.09520150  0.61961070     0.09900
C1291       C  0.68574820  0.10100349  0.62546903     0.10300
C1292       C  0.70797077  0.07536804  0.62595466    -0.17000
C1293       C  0.69886447  0.04402859  0.62106097    -0.27400
C1294       C  0.66676932  0.03800777  0.61559269     0.18700
C1295       C  0.62985597  0.12156554  0.61878006     0.12600
C1296       C  0.69612290  0.13421094  0.63121154    -0.11700
H1297       H  0.73260413  0.07970467  0.63022294     0.12900
C1298       C  0.65605799  0.00465591  0.61025158    -0.22600
H1299       H  0.62002009  0.05967988  0.61052927     0.08500
C1300       C  0.62482639  0.13949773  0.60386735     0.04900
C1301       C  0.60170032  0.16445729  0.60382704    -0.19800
C1302       C  0.58361240  0.17157758  0.61835550    -0.12100
C1303       C  0.58896816  0.15376264  0.63332198     0.13600
C1304       C  0.61203328  0.12887970  0.63331441    -0.22500
C1305       C  0.64379885  0.13219087  0.58807519    -0.05600
H1306       H  0.59737778  0.17822763  0.59240875     0.15100
C1307       C  0.57080568  0.16032556  0.64946950    -0.15800
H1308       H  0.61622042  0.11507692  0.64474280     0.09500
H1309       H  0.63037003  0.00451298  0.60597172     0.07300
H1310       H  0.65813729  0.98758915  0.62100116     0.08500
H1311       H  0.67149678  0.99600445  0.59969054     0.07600
H1312       H  0.68081968  0.14205170  0.64199675     0.02400
H1313       H  0.69338652  0.15179491  0.62072079     0.02900
H1314       H  0.72188401  0.13451090  0.63536070     0.06400
H1315       H  0.63680629  0.14847349  0.57753510     0.05400
H1316       H  0.63921244  0.10682186  0.58408165    -0.00400
H1317       H  0.67015822  0.13539809  0.59050097     0.01100
H1318       H  0.55677922  0.13843666  0.65311429     0.04800
H1319       H  0.55364487  0.18091046  0.64847115     0.06700
H1320       H  0.58839484  0.16607958  0.65964420     0.07600
C1321       C  0.36791525  0.14174598  0.60701161    -0.22000
C1322       C  0.36727901  0.11984306  0.62053650     0.09900
C1323       C  0.39048571  0.12286762  0.63355157     0.10300
C1324       C  0.41428005  0.14719334  0.63251882    -0.17000
C1325       C  0.41502671  0.16905253  0.61896525    -0.27400
C1326       C  0.39120423  0.16657067  0.60615134     0.18700
C1327       C  0.34187525  0.09420357  0.62097542     0.12600
C1328       C  0.38952473  0.10110345  0.64879200    -0.11700
H1329       H  0.43221081  0.14950504  0.64244588     0.12900
C1330       C  0.38958681  0.18958026  0.59141382    -0.22600
H1331       H  0.34999196  0.13952568  0.59706840     0.08500
C1332       C  0.30897804  0.10161768  0.62425256     0.04900
C1333       C  0.28602471  0.07646661  0.62492911    -0.19800
C1334       C  0.29519157  0.04401447  0.62260872    -0.12100
C1335       C  0.32811971  0.03660279  0.61915659     0.13600
C1336       C  0.35099527  0.06182009  0.61839331    -0.22500
C1337       C  0.29822244  0.13592104  0.62754868    -0.05600
H1338       H  0.26081546  0.08205871  0.62762222     0.15100
C1339       C  0.33992920  0.00259831  0.61589510    -0.15800
H1340       H  0.37621232  0.05618515  0.61573598     0.09500
H1341       H  0.36592313  0.20250006  0.59160272     0.07300
H1342       H  0.39158980  0.17572647  0.57946409     0.08500
H1343       H  0.40919279  0.20795283  0.59147909     0.07600
H1344       H  0.39341450  0.07554673  0.64497554     0.02400
H1345       H  0.36555897  0.10334233  0.65512530     0.02900
H1346       H  0.40864952  0.10756950  0.65806832     0.06400
H1347       H  0.27194737  0.13722374  0.63066628     0.05400
H1348       H  0.30249055  0.15106459  0.61620764    -0.00400
H1349       H  0.31206273  0.14607730  0.63833429     0.01100
H1350       H  0.35237803  0.00166067  0.60347952     0.04800
H1351       H  0.32009180  0.98448381  0.61558968     0.06700
H1352       H  0.35744855  0.99549704  0.62586865     0.07600
C1353       C  0.88441656  0.96618505  0.45015990    -0.22000
C1354       C  0.88641417  0.98990741  0.43754573     0.09900
C1355       C  0.91196397  0.01264981  0.43793064     0.10300
C1356       C  0.93472321  0.01154873  0.45108632    -0.17000
C1357       C  0.93280515  0.98796733  0.46382202    -0.27400
C1358       C  0.90742192  0.96473577  0.46325474     0.18700
C1359       C  0.86087656  0.99145352  0.42435015     0.12600
C1360       C  0.91523733  0.03800191  0.42437482    -0.11700
H1361       H  0.95431826  0.02908830  0.45135006     0.12900
C1362       C  0.90375620  0.93902906  0.47663909    -0.22600
H1363       H  0.86461568  0.94888556  0.44979167     0.08500
C1364       C  0.86171650  0.97139227  0.40993606     0.04900
C1365       C  0.83729444  0.97450003  0.39763136    -0.19800
C1366       C  0.81236950  0.99749915  0.39937323    -0.12100
C1367       C  0.81174130  0.01767984  0.41374943     0.13600
C1368       C  0.83590051  0.01428971  0.42611442    -0.22500
C1369       C  0.88849425  0.94697440  0.40753016    -0.05600
H1370       H  0.83755662  0.95892207  0.38662986     0.15100
C1371       C  0.78526469  0.04242261  0.41617663    -0.15800
H1372       H  0.83546586  0.02964485  0.43719983     0.09500
H1373       H  0.92466921  0.92209431  0.47616311     0.07300
H1374       H  0.88134504  0.92447425  0.47480611     0.08500
H1375       H  0.90239301  0.95048376  0.48929232     0.07600
H1376       H  0.89336069  0.05370694  0.42423990     0.02400
H1377       H  0.91787065  0.02607231  0.41190063     0.02900
H1378       H  0.93678976  0.05368893  0.42643111     0.06400
H1379       H  0.88568662  0.93338492  0.39553344     0.05400
H1380       H  0.88824675  0.92927280  0.41806676    -0.00400
H1381       H  0.91234749  0.95952884  0.40727120     0.01100
H1382       H  0.78799404  0.05566817  0.42828183     0.04800
H1383       H  0.76121433  0.03024635  0.41621111     0.06700
H1384       H  0.78605161  0.06043349  0.40579364     0.07600
C1385       C  0.89089257  0.96901754  0.55711728    -0.22000
C1386       C  0.88054598  0.99965624  0.56241000     0.09900
C1387       C  0.89518799  0.02753038  0.55555140     0.10300
C1388       C  0.92018106  0.02406676  0.54360676    -0.17000
C1389       C  0.93050840  0.99330090  0.53796224    -0.27400
C1390       C  0.91516262  0.96532707  0.54481115     0.18700
C1391       C  0.85327528  0.00163147  0.57461274     0.12600
C1392       C  0.88377981  0.06089161  0.56048337    -0.11700
H1393       H  0.93129881  0.04571778  0.53847178     0.12900
C1394       C  0.92328022  0.93141043  0.53913436    -0.22600
H1395       H  0.87923795  0.94778107  0.56243349     0.08500
C1396       C  0.82111508  0.99466666  0.56961303     0.04900
C1397       C  0.79632992  0.99430848  0.58175474    -0.19800
C1398       C  0.80298471  0.00058128  0.59877853    -0.12100
C1399       C  0.83490590  0.00892225  0.60368879     0.13600
C1400       C  0.85977961  0.00920839  0.59152479    -0.22500
C1401       C  0.81293206  0.98777305  0.55144889    -0.05600
H1402       H  0.77166673  0.98857816  0.57801370     0.15100
C1403       C  0.84258347  0.01808485  0.62163286    -0.15800
H1404       H  0.88446264  0.01491942  0.59522981     0.09500
H1405       H  0.90824549  0.91292885  0.54568076     0.07300
H1406       H  0.94909351  0.92588795  0.54195107     0.08500
H1407       H  0.91852278  0.92891122  0.52541513     0.07600
H1408       H  0.88743709  0.06467788  0.57420163     0.02400
H1409       H  0.85756707  0.06351749  0.55748105     0.02900
H1410       H  0.89726794  0.08014197  0.55363979     0.06400
H1411       H  0.78650219  0.98361381  0.54967034     0.05400
H1412       H  0.82592766  0.96576133  0.54709749    -0.00400
H1413       H  0.82020473  0.00868850  0.54348927     0.01100
H1414       H  0.83771322  0.99733526  0.63015479     0.04800
H1415       H  0.82732026  0.03899370  0.62549419     0.06700
H1416       H  0.86846976  0.02509481  0.62314409     0.07600
C1417       C  0.12703878  0.00190209  0.54828515    -0.22000
C1418       C  0.11897312  0.98868902  0.56401025     0.09900
C1419       C  0.08775088  0.97560417  0.56668114     0.10300
C1420       C  0.06532773  0.97561169  0.55338837    -0.17000
C1421       C  0.07314228  0.98932612  0.53772151    -0.27400
C1422       C  0.10448616  0.00245310  0.53505495     0.18700
C1423       C  0.14359193  0.98931927  0.57754377     0.12600
C1424       C  0.07787843  0.96239093  0.58363331    -0.11700
H1425       H  0.04124540  0.96564506  0.55535119     0.12900
C1426       C  0.11526957  0.01657715  0.51843967    -0.22600
H1427       H  0.15114964  0.01181818  0.54633085     0.08500
C1428       C  0.16487732  0.96306685  0.58018903     0.04900
C1429       C  0.18853994  0.96529349  0.59285584    -0.19800
C1430       C  0.19168350  0.99337773  0.60272680    -0.12100
C1431       C  0.16996336  0.01954069  0.60015407     0.13600
C1432       C  0.14625788  0.01715465  0.58752926    -0.22500
C1433       C  0.16310341  0.93311236  0.56937147    -0.05600
H1434       H  0.20527469  0.94536069  0.59478363     0.15100
C1435       C  0.17058561  0.05003278  0.61060680    -0.15800
H1436       H  0.12970393  0.03719096  0.58543279     0.09500
H1437       H  0.13749645  0.00386367  0.51406788     0.07300
H1438       H  0.12104122  0.04265021  0.52011619     0.08500
H1439       H  0.09675420  0.01433178  0.50838919     0.07600
H1440       H  0.07957574  0.98183132  0.59326531     0.02400
H1441       H  0.09408508  0.94212290  0.58729403     0.02900
H1442       H  0.05251693  0.95319802  0.58353546     0.06400
H1443       H  0.18170097  0.91495966  0.57305339     0.05400
H1444       H  0.16723919  0.93969910  0.55596827    -0.00400
H1445       H  0.13884853  0.92164569  0.57060854     0.01100
H1446       H  0.17605738  0.07109540  0.60236759     0.04800
H1447       H  0.18872918  0.04932943  0.62089377     0.06700
H1448       H  0.14642247  0.05373061  0.61653364     0.07600
C1449       C  0.14882963  0.96553259  0.41487457    -0.22000
C1450       C  0.14702930  0.99043932  0.42679196     0.09900
C1451       C  0.16947665  0.01622191  0.42620501     0.10300
C1452       C  0.19281598  0.01697473  0.41330024    -0.17000
C1453       C  0.19429532  0.99237850  0.40109011    -0.27400
C1454       C  0.17205975  0.96618892  0.40194622     0.18700
C1455       C  0.12118556  0.98918595  0.43970186     0.12600
C1456       C  0.16872762  0.04283013  0.43919968    -0.11700
H1457       H  0.21009379  0.03677150  0.41274574     0.12900
C1458       C  0.17128518  0.93906306  0.38922645    -0.22600
H1459       H  0.13154491  0.94573116  0.41548678     0.08500
C1460       C  0.09041999  0.00313200  0.43681586     0.04900
C1461       C  0.06721915  0.00272112  0.44975373    -0.19800
C1462       C  0.07369403  0.98747547  0.46519435    -0.12100
C1463       C  0.10426371  0.97268066  0.46789942     0.13600
C1464       C  0.12769577  0.97388106  0.45508162    -0.22500
C1465       C  0.08195147  0.01787647  0.42001326    -0.05600
H1466       H  0.04364685  0.01376620  0.44770629     0.15100
C1467       C  0.11350581  0.95631707  0.48419876    -0.15800
H1468       H  0.15136182  0.96305526  0.45714112     0.09500
H1469       H  0.14669811  0.93761001  0.38352961     0.07300
H1470       H  0.17667470  0.91575439  0.39563345     0.08500
H1471       H  0.18881388  0.94230436  0.37877653     0.07600
H1472       H  0.17226470  0.03236466  0.45196444     0.02400
H1473       H  0.14495394  0.05548473  0.43876138     0.02900
H1474       H  0.18817243  0.06100477  0.43699628     0.06400
H1475       H  0.05681454  0.02765928  0.41989485     0.05400
H1476       H  0.08377414  0.99912903  0.41001545    -0.00400
H1477       H  0.09893580  0.03797911  0.41707224     0.01100
H1478       H  0.11862418  0.93032438  0.48177498     0.04800
H1479       H  0.09450091  0.95791780  0.49403985     0.06700
H1480       H  0.13579500  0.96780051  0.48931265     0.07600
C1481       C  0.31028183  0.40347667  0.63178785    -0.22000
C1482       C  0.34095052  0.41144717  0.62534240     0.09900
C1483       C  0.34718765  0.44328262  0.61973394     0.10300
C1484       C  0.32241482  0.46655483  0.62068427    -0.17000
C1485       C  0.29155629  0.45848908  0.62691153    -0.27400
C1486       C  0.28541520  0.42663092  0.63264824     0.18700
C1487       C  0.36609929  0.38593909  0.62445439     0.12600
C1488       C  0.37986692  0.45254287  0.61266346    -0.11700
H1489       H  0.32694856  0.49105537  0.61634827     0.12900
C1490       C  0.25313115  0.41632984  0.63985282    -0.22600
H1491       H  0.30572799  0.37899231  0.63615087     0.08500
C1492       C  0.38708387  0.37983622  0.63813407     0.04900
C1493       C  0.41071674  0.35555545  0.63666278    -0.19800
C1494       C  0.41368468  0.33728076  0.62184237    -0.12100
C1495       C  0.39241989  0.34317739  0.60818093     0.13600
C1496       C  0.36882615  0.36750505  0.60968391    -0.22500
C1497       C  0.38453496  0.39898819  0.65423438    -0.05600
H1498       H  0.42708882  0.35081435  0.64707134     0.15100
C1499       C  0.39416702  0.32457338  0.59184719    -0.15800
H1500       H  0.35254360  0.37227859  0.59923448     0.09500
H1501       H  0.25665928  0.40716494  0.65288596     0.07300
H1502       H  0.24277123  0.39661374  0.63199762     0.08500
H1503       H  0.23518248  0.43630511  0.64041252     0.07600
H1504       H  0.38538316  0.43742827  0.60144347     0.02400
H1505       H  0.39897100  0.44867814  0.62232064     0.02900
H1506       H  0.38057423  0.47838171  0.60876533     0.06400
H1507       H  0.40286788  0.39113347  0.66365290     0.05400
H1508       H  0.36004726  0.39564747  0.65984112    -0.00400
H1509       H  0.38847542  0.42509912  0.65159137     0.01100
H1510       H  0.37075739  0.31188127  0.58967536     0.04800
H1511       H  0.41380917  0.30622817  0.59167182     0.06700
H1512       H  0.39858228  0.34164935  0.58127279     0.07600
C1513       C  0.69070798  0.40262621  0.62070670    -0.22000
C1514       C  0.65831145  0.41274830  0.61930394     0.09900
C1515       C  0.65103680  0.44612998  0.61913477     0.10300
C1516       C  0.67640243  0.46869630  0.62028373    -0.17000
C1517       C  0.70886667  0.45868709  0.62185485    -0.27400
C1518       C  0.71610873  0.42513741  0.62224016     0.18700
C1519       C  0.63226283  0.38796284  0.61870782     0.12600
C1520       C  0.61653056  0.45791220  0.61766819    -0.11700
H1521       H  0.67089277  0.49437657  0.61997702     0.12900
C1522       C  0.74992573  0.41210660  0.62498083    -0.22600
H1523       H  0.69610520  0.37692153  0.62106977     0.08500
C1524       C  0.62503012  0.37083348  0.60377985     0.04900
C1525       C  0.60041032  0.34723454  0.60398805    -0.19800
C1526       C  0.58279219  0.34063090  0.61876225    -0.12100
C1527       C  0.58986540  0.35810180  0.63365940     0.13600
C1528       C  0.61458144  0.38148735  0.63343527    -0.22500
C1529       C  0.64301506  0.37780176  0.58763814    -0.05600
H1530       H  0.59479253  0.33387837  0.59259144     0.15100
C1531       C  0.57207336  0.35250567  0.65001321    -0.15800
H1532       H  0.62020997  0.39474213  0.64487080     0.09500
H1533       H  0.75777252  0.39833460  0.61366569     0.07300
H1534       H  0.74988707  0.39556055  0.63602079     0.08500
H1535       H  0.76811955  0.43119641  0.62759368     0.07600
H1536       H  0.60208128  0.44921535  0.62858686     0.02400
H1537       H  0.60557772  0.44859989  0.60583625     0.02900
H1538       H  0.61518485  0.48478680  0.61745530     0.06400
H1539       H  0.63413639  0.36249349  0.57708866     0.05400
H1540       H  0.66931912  0.37292505  0.58934609    -0.00400
H1541       H  0.63959958  0.40360192  0.58408611     0.01100
H1542       H  0.58968164  0.34528240  0.65991835     0.04800
H1543       H  0.55338370  0.33326635  0.64914596     0.06700
H1544       H  0.55985824  0.37526797  0.65394931     0.07600
C1545       C  0.12167483  0.51579197  0.45058021    -0.22000
C1546       C  0.12163451  0.48948448  0.43946276     0.09900
C1547       C  0.09704743  0.46583442  0.44057358     0.10300
C1548       C  0.07273041  0.46912682  0.45284959    -0.17000
C1549       C  0.07228530  0.49579346  0.46386095    -0.27400
C1550       C  0.09731717  0.51932455  0.46280682     0.18700
C1551       C  0.14819161  0.48684088  0.42702717     0.12600
C1552       C  0.09653128  0.43723125  0.42878446    -0.11700
H1553       H  0.05376055  0.45098486  0.45372150     0.12900
C1554       C  0.09935583  0.54752561  0.47486739    -0.22600
H1555       H  0.14099009  0.53357177  0.44968678     0.08500
C1556       C  0.14591365  0.50139329  0.41098849     0.04900
C1557       C  0.17205107  0.49860320  0.39973350    -0.19800
C1558       C  0.20046329  0.48209122  0.40432569    -0.12100
C1559       C  0.20285760  0.46785451  0.42049176     0.13600
C1560       C  0.17650816  0.47025383  0.43162128    -0.22500
C1561       C  0.11610958  0.52012358  0.40587330    -0.05600
H1562       H  0.17056607  0.50973690  0.38737649     0.15100
C1563       C  0.23274631  0.45015464  0.42641972    -0.15800
H1564       H  0.17814382  0.45937448  0.44403918     0.09500
H1565       H  0.07843544  0.56405582  0.47296068     0.07300
H1566       H  0.12180986  0.56196465  0.47290028     0.08500
H1567       H  0.09953398  0.53853970  0.48806946     0.07600
H1568       H  0.11921364  0.42297148  0.43025117     0.02400
H1569       H  0.09462796  0.44576752  0.41555218     0.02900
H1570       H  0.07561594  0.42096627  0.43136649     0.06400
H1571       H  0.11855139  0.53035763  0.39298170     0.05400
H1572       H  0.11211113  0.54049948  0.41477353    -0.00400
H1573       H  0.09454767  0.50399165  0.40606048     0.01100
H1574       H  0.24246068  0.46219996  0.43787638     0.04800
H1575       H  0.25232604  0.44953993  0.41682802     0.06700
H1576       H  0.22627670  0.42476293  0.42960436     0.07600
C1577       C  0.11307208  0.53583048  0.55390866    -0.22000
C1578       C  0.12149080  0.50669548  0.56181164     0.09900
C1579       C  0.10575567  0.47778826  0.55710789     0.10300
C1580       C  0.08192299  0.47866707  0.54454007    -0.17000
C1581       C  0.07333140  0.50774425  0.53638640    -0.27400
C1582       C  0.08929980  0.53688070  0.54122116     0.18700
C1583       C  0.14651786  0.50715280  0.57520422     0.12600
C1584       C  0.11445352  0.44584748  0.56512923    -0.11700
H1585       H  0.06997143  0.45624256  0.54109780     0.12900
C1586       C  0.08190065  0.56921184  0.53323019    -0.22600
H1587       H  0.12524104  0.55791876  0.55775838     0.08500
C1588       C  0.17980759  0.51077103  0.57138436     0.04900
C1589       C  0.20250285  0.51132000  0.58457270    -0.19800
C1590       C  0.19264774  0.50820258  0.60144784    -0.12100
C1591       C  0.15932325  0.50408966  0.60522353     0.13600
C1592       C  0.13663499  0.50385846  0.59203109    -0.22500
C1593       C  0.19141292  0.51331734  0.55340977    -0.05600
H1594       H  0.22811419  0.51410879  0.58173039     0.15100
C1595       C  0.14768905  0.49888314  0.62303985    -0.15800
H1596       H  0.11101402  0.50093737  0.59481484     0.09500
H1597       H  0.09713877  0.58892067  0.53855530     0.07300
H1598       H  0.05614368  0.57583751  0.53553756     0.08500
H1599       H  0.08684817  0.56815381  0.51947730     0.07600
H1600       H  0.10948163  0.44669390  0.57886923     0.02400
H1601       H  0.14060727  0.44066544  0.56303376     0.02900
H1602       H  0.10015734  0.42551318  0.55973561     0.06400
H1603       H  0.21828442  0.51529389  0.55266624     0.05400
H1604       H  0.18086259  0.53512801  0.54734464    -0.00400
H1605       H  0.18387074  0.49142191  0.54628131     0.01100
H1606       H  0.15251016  0.52073381  0.63076463     0.04800
H1607       H  0.16038353  0.47774982  0.62865508     0.06700
H1608       H  0.12115485  0.49407394  0.62352643     0.07600
C1609       C  0.90855594  0.53626537  0.56219013    -0.22000
C1610       C  0.88614882  0.51093409  0.56374719     0.09900
C1611       C  0.88786685  0.48412173  0.55280961     0.10300
C1612       C  0.91173645  0.48345408  0.54024985    -0.17000
C1613       C  0.93383921  0.50910562  0.53828576    -0.27400
C1614       C  0.93254005  0.53573492  0.54959749     0.18700
C1615       C  0.86058394  0.51295282  0.57674398     0.12600
C1616       C  0.86452918  0.45616541  0.55445350    -0.11700
H1617       H  0.91278269  0.46293786  0.53173810     0.12900
C1618       C  0.95670150  0.56318472  0.54886937    -0.22600
H1619       H  0.90710690  0.55656589  0.57083179     0.08500
C1620       C  0.86649455  0.50359817  0.59355671     0.04900
C1621       C  0.84075775  0.50387031  0.60514835    -0.19800
C1622       C  0.80930961  0.51267208  0.60012321    -0.12100
C1623       C  0.80357970  0.52262169  0.58333840     0.13600
C1624       C  0.82940434  0.52269664  0.57184968    -0.22500
C1625       C  0.89964339  0.49239776  0.59906579    -0.05600
H1626       H  0.84493236  0.49635983  0.61806492     0.15100
C1627       C  0.77069778  0.53342194  0.57715114    -0.15800
H1628       H  0.82510639  0.52988194  0.55888880     0.09500
H1629       H  0.95319424  0.58056772  0.55940519     0.07300
H1630       H  0.95378359  0.57692667  0.53694613     0.08500
H1631       H  0.98180621  0.55347940  0.54976246     0.07600
H1632       H  0.83926578  0.46476612  0.55251659     0.02400
H1633       H  0.86664023  0.44531485  0.56721544     0.02900
H1634       H  0.86953072  0.43692223  0.54501705     0.06400
H1635       H  0.90001428  0.48574794  0.61263343     0.05400
H1636       H  0.91766468  0.51201796  0.59702728    -0.00400
H1637       H  0.90692484  0.47078319  0.59163387     0.01100
H1638       H  0.77251902  0.55843513  0.57208845     0.04800
H1639       H  0.75190686  0.53357715  0.58715830     0.06700
H1640       H  0.76243405  0.51701193  0.56692564     0.07600
C1641       C  0.87575967  0.51334905  0.45404154    -0.22000
C1642       C  0.87985417  0.49272240  0.44018452     0.09900
C1643       C  0.90815029  0.47362543  0.43887096     0.10300
C1644       C  0.93192641  0.47574098  0.45147871    -0.17000
C1645       C  0.92799855  0.49654351  0.46532106    -0.27400
C1646       C  0.89924416  0.51518184  0.46679907     0.18700
C1647       C  0.85397459  0.49126157  0.42728070     0.12600
C1648       C  0.91312251  0.45094391  0.42422377    -0.11700
H1649       H  0.95390395  0.46140546  0.45042551     0.12900
C1650       C  0.89174264  0.53612914  0.48189661    -0.22600
H1651       H  0.85375221  0.52765704  0.45505955     0.08500
C1652       C  0.82601949  0.47196942  0.42957910     0.04900
C1653       C  0.80225416  0.47116466  0.41689307    -0.19800
C1654       C  0.80575346  0.48959428  0.40213993    -0.12100
C1655       C  0.83361585  0.50919313  0.39995364     0.13600
C1656       C  0.85747482  0.50965091  0.41255081    -0.22500
C1657       C  0.82139492  0.45229722  0.44539689    -0.05600
H1658       H  0.78073712  0.45634081  0.41852255     0.15100
C1659       C  0.83897219  0.52984400  0.38452359    -0.15800
H1660       H  0.87896312  0.52452071  0.41089941     0.09500
H1661       H  0.86799070  0.52877639  0.48733839     0.07300
H1662       H  0.89022019  0.56187228  0.47792090     0.08500
H1663       H  0.90991046  0.53404820  0.49211754     0.07600
H1664       H  0.91315454  0.46483783  0.41224160     0.02400
H1665       H  0.89321941  0.43280161  0.42390870     0.02900
H1666       H  0.93656873  0.43775297  0.42516272     0.06400
H1667       H  0.79850915  0.43806593  0.44503753     0.05400
H1668       H  0.82039943  0.46863655  0.45650393    -0.00400
H1669       H  0.84195633  0.43514622  0.44692356     0.01100
H1670       H  0.84084347  0.55566563  0.38832724     0.04800
H1671       H  0.81915903  0.52774586  0.37513920     0.06700
H1672       H  0.86195850  0.52252404  0.37826330     0.07600
C1673       C  0.27017780  0.62674508  0.70468599    -0.22000
C1674       C  0.25099767  0.63199743  0.69034862     0.09900
C1675       C  0.23396476  0.66140153  0.68852571     0.10300
C1676       C  0.23593426  0.68477636  0.70130094    -0.17000
C1677       C  0.25548575  0.67988713  0.71555378    -0.27400
C1678       C  0.27293736  0.65053312  0.71727825     0.18700
C1679       C  0.24927120  0.60651789  0.67727031     0.12600
C1680       C  0.21426588  0.66831720  0.67294259    -0.11700
H1681       H  0.22267878  0.70731586  0.69999159     0.12900
C1682       C  0.29371883  0.64383342  0.73251831    -0.22600
H1683       H  0.28317124  0.60402837  0.70593478     0.08500
C1684       C  0.27332340  0.60381820  0.66468846     0.04900
C1685       C  0.27044049  0.57958690  0.65238792    -0.19800
C1686       C  0.24423027  0.55784409  0.65252541    -0.12100
C1687       C  0.22043435  0.56018838  0.66536023     0.13600
C1688       C  0.22308976  0.58481863  0.67746860    -0.22500
C1689       C  0.30193349  0.62655091  0.66426434    -0.05600
H1690       H  0.28874810  0.57749969  0.64261382     0.15100
C1691       C  0.19265647  0.53658473  0.66703551    -0.15800
H1692       H  0.20486255  0.58685100  0.68729144     0.09500
H1693       H  0.30446190  0.61915721  0.73209125     0.07300
H1694       H  0.27881653  0.64574327  0.74415262     0.08500
H1695       H  0.31400767  0.66148988  0.73311052     0.07600
H1696       H  0.19478855  0.64991662  0.67157091     0.02400
H1697       H  0.23025304  0.66753788  0.66166622     0.02900
H1698       H  0.20271446  0.69261367  0.67347591     0.06400
H1699       H  0.31851148  0.62108888  0.65358236     0.05400
H1700       H  0.31600122  0.62433289  0.67614305    -0.00400
H1701       H  0.29329985  0.65188940  0.66288409     0.01100
H1702       H  0.19350819  0.52504962  0.67967808     0.04800
H1703       H  0.19333905  0.51690497  0.65755267     0.06700
H1704       H  0.16926208  0.54970353  0.66570231     0.07600
C1705       C  0.23395716  0.63295949  0.80017883    -0.22000
C1706       C  0.25668488  0.63437459  0.81325925     0.09900
C1707       C  0.27944009  0.65989987  0.81381085     0.10300
C1708       C  0.27882365  0.68367069  0.80117404    -0.17000
C1709       C  0.25578749  0.68254786  0.78813303    -0.27400
C1710       C  0.23311602  0.65675353  0.78759336     0.18700
C1711       C  0.25644179  0.60838508  0.82605041     0.12600
C1712       C  0.30403097  0.66222323  0.82781611    -0.11700
H1713       H  0.29618839  0.70340857  0.80156209     0.12900
C1714       C  0.20882711  0.65333915  0.77348289    -0.22600
H1715       H  0.21690040  0.61295465  0.79980237     0.08500
C1716       C  0.23238232  0.60709363  0.83871793     0.04900
C1717       C  0.23296656  0.58168116  0.85044396    -0.19800
C1718       C  0.25698807  0.55765720  0.84966974    -0.12100
C1719       C  0.28056344  0.55853551  0.83674288     0.13600
C1720       C  0.28007614  0.58404040  0.82508494    -0.22500
C1721       C  0.20634531  0.63263542  0.83991979    -0.05600
H1722       H  0.21474641  0.58057053  0.86030665     0.15100
C1723       C  0.30565936  0.53219970  0.83498977    -0.15800
H1724       H  0.29803549  0.58494684  0.81509079     0.09500
H1725       H  0.19137759  0.67380414  0.77375748     0.07300
H1726       H  0.19452480  0.63061717  0.77460243     0.08500
H1727       H  0.22165786  0.65286007  0.76116199     0.07600
H1728       H  0.32001566  0.64057893  0.82769515     0.02400
H1729       H  0.29133259  0.66366228  0.84015004     0.02900
H1730       H  0.31964171  0.68402784  0.82648416     0.06400
H1731       H  0.18996865  0.62838391  0.85083323     0.05400
H1732       H  0.19132025  0.63249670  0.82831009    -0.00400
H1733       H  0.21769633  0.65686096  0.84144214     0.01100
H1734       H  0.32126029  0.53593144  0.82372360     0.04800
H1735       H  0.29344609  0.50833486  0.83370786     0.06700
H1736       H  0.32160817  0.53191672  0.84623886     0.07600
C1737       C  0.28324130  0.85350492  0.81112669    -0.22000
C1738       C  0.25655765  0.87448063  0.81181867     0.09900
C1739       C  0.23082469  0.87053885  0.80029001     0.10300
C1740       C  0.23234140  0.84555031  0.78830518    -0.17000
C1741       C  0.25920065  0.82451729  0.78739494    -0.27400
C1742       C  0.28502611  0.82859298  0.79907624     0.18700
C1743       C  0.25623270  0.90045900  0.82474823     0.12600
C1744       C  0.20177535  0.89270171  0.80065120    -0.11700
H1745       H  0.21249861  0.84269739  0.77945742     0.12900
C1746       C  0.31422036  0.80654120  0.79930333    -0.22600
H1747       H  0.30281273  0.85673391  0.82010721     0.08500
C1748       C  0.24475533  0.89468513  0.84125891     0.04900
C1749       C  0.24528607  0.91995780  0.85315142    -0.19800
C1750       C  0.25732823  0.95068370  0.84887616    -0.12100
C1751       C  0.26931954  0.95625614  0.83244286     0.13600
C1752       C  0.26848922  0.93109548  0.82052094    -0.22500
C1753       C  0.23202534  0.86185005  0.84626140    -0.05600
H1754       H  0.23621997  0.91580957  0.86580334     0.15100
C1755       C  0.28339897  0.98863682  0.82760669    -0.15800
H1756       H  0.27759666  0.93522261  0.80787443     0.09500
H1757       H  0.33074830  0.81215286  0.80997416     0.07300
H1758       H  0.32840173  0.80952096  0.78750074     0.08500
H1759       H  0.30629200  0.78095544  0.80067254     0.07600
H1760       H  0.20967467  0.91807601  0.79847480     0.02400
H1761       H  0.18956246  0.89104139  0.81310328     0.02900
H1762       H  0.18378968  0.88627320  0.79076751     0.06400
H1763       H  0.22399156  0.86138909  0.85962920     0.05400
H1764       H  0.25139007  0.84338420  0.84465508    -0.00400
H1765       H  0.21097564  0.85530725  0.83821221     0.01100
H1766       H  0.30419529  0.99446142  0.83598579     0.04800
H1767       H  0.26461828  0.00777163  0.82888332     0.06700
H1768       H  0.29226521  0.98875423  0.81437787     0.07600
C1769       C  0.23877471  0.84402927  0.68728877    -0.22000
C1770       C  0.25752059  0.87193720  0.68974771     0.09900
C1771       C  0.27727583  0.87456378  0.70420182     0.10300
C1772       C  0.27818405  0.84886281  0.71581239    -0.17000
C1773       C  0.25906649  0.82102695  0.71350339    -0.27400
C1774       C  0.23936135  0.81842676  0.69891864     0.18700
C1775       C  0.25578997  0.89815505  0.67701667     0.12600
C1776       C  0.29678270  0.90475875  0.70751216    -0.11700
H1777       H  0.29304648  0.85095966  0.72703740     0.12900
C1778       C  0.21938671  0.78878888  0.69488103    -0.22600
H1779       H  0.22371611  0.84213148  0.67611919     0.08500
C1780       C  0.27579375  0.89800500  0.66256130     0.04900
C1781       C  0.27251085  0.92282660  0.65057980    -0.19800
C1782       C  0.24955175  0.94761826  0.65269350    -0.12100
C1783       C  0.22958680  0.94780529  0.66723089     0.13600
C1784       C  0.23302120  0.92303034  0.67922423    -0.22500
C1785       C  0.30051454  0.87164117  0.65979766    -0.05600
H1786       H  0.28769967  0.92276778  0.63940464     0.15100
C1787       C  0.20472304  0.97381012  0.67059028    -0.15800
H1788       H  0.21772702  0.92301994  0.69036334     0.09500
H1789       H  0.22597114  0.77975808  0.68214024     0.07300
H1790       H  0.19319945  0.79521762  0.69496704     0.08500
H1791       H  0.22335431  0.76851129  0.70376313     0.07600
H1792       H  0.28023280  0.92590931  0.70853605     0.02400
H1793       H  0.31414091  0.90890961  0.69701808     0.02900
H1794       H  0.31082312  0.90293905  0.71942631     0.06400
H1795       H  0.31403049  0.87507923  0.64780213     0.05400
H1796       H  0.28820105  0.84773248  0.65929329    -0.00400
H1797       H  0.31832238  0.87163436  0.67029776     0.01100
H1798       H  0.18023040  0.96266907  0.67150266     0.04800
H1799       H  0.20400229  0.99263948  0.66064355     0.06700
H1800       H  0.21039998  0.98599958  0.68271543     0.07600
C1801       C  0.77509144  0.63941003  0.80125201    -0.22000
C1802       C  0.74693227  0.63664082  0.81106154     0.09900
C1803       C  0.72068468  0.65781274  0.80822658     0.10300
C1804       C  0.72325927  0.68150879  0.79565942    -0.17000
C1805       C  0.75146530  0.68465823  0.78575689    -0.27400
C1806       C  0.77777615  0.66304397  0.78857478     0.18700
C1807       C  0.74538006  0.61113592  0.82415552     0.12600
C1808       C  0.68975837  0.65512175  0.81829466    -0.11700
H1809       H  0.70296668  0.69775146  0.79360730     0.12900
C1810       C  0.80840193  0.66391372  0.77814239    -0.22600
H1811       H  0.79502270  0.62281042  0.80352118     0.08500
C1812       C  0.73916659  0.57850624  0.81993824     0.04900
C1813       C  0.73797805  0.55514825  0.83278268    -0.19800
C1814       C  0.74333578  0.56369922  0.84966733    -0.12100
C1815       C  0.75032769  0.59625072  0.85382706     0.13600
C1816       C  0.75085327  0.61970920  0.84101401    -0.22500
C1817       C  0.73382607  0.56841030  0.80190272    -0.05600
H1818       H  0.73301537  0.53006267  0.82966190     0.15100
C1819       C  0.75855812  0.60598891  0.87162561    -0.15800
H1820       H  0.75608627  0.64476553  0.84408213     0.09500
H1821       H  0.80234126  0.66126693  0.76457226     0.07300
H1822       H  0.82526594  0.64393711  0.78152681     0.08500
H1823       H  0.82145702  0.68707202  0.78028328     0.07600
H1824       H  0.69491770  0.65939057  0.83184314     0.02400
H1825       H  0.67921370  0.63055463  0.81670140     0.02900
H1826       H  0.67133873  0.67312411  0.81417791     0.06400
H1827       H  0.72859717  0.54208973  0.80085353     0.05400
H1828       H  0.75591540  0.57364982  0.79434356    -0.00400
H1829       H  0.71294049  0.58193005  0.79653722     0.01100
H1830       H  0.76445355  0.63219147  0.87253696     0.04800
H1831       H  0.78001495  0.59204638  0.87602081     0.06700
H1832       H  0.73770112  0.60108411  0.88010758     0.07600
C1833       C  0.72033795  0.63598948  0.69755635    -0.22000
C1834       C  0.74900743  0.62977897  0.68868275     0.09900
C1835       C  0.77698676  0.64831145  0.69192223     0.10300
C1836       C  0.77572060  0.67283725  0.70411153    -0.17000
C1837       C  0.74695397  0.67965001  0.71307128    -0.27400
C1838       C  0.71879293  0.66067127  0.70972517     0.18700
C1839       C  0.74915731  0.60410180  0.67575526     0.12600
C1840       C  0.80807972  0.64237132  0.68235569    -0.11700
H1841       H  0.79736843  0.68706795  0.70644648     0.12900
C1842       C  0.68709789  0.66561424  0.71891315    -0.22600
H1843       H  0.69903296  0.62143435  0.69486633     0.08500
C1844       C  0.75796512  0.57198742  0.67972867     0.04900
C1845       C  0.75950185  0.54890328  0.66680219    -0.19800
C1846       C  0.75211766  0.55731525  0.65012197    -0.12100
C1847       C  0.74229126  0.58928100  0.64624324     0.13600
C1848       C  0.74119176  0.61239237  0.65914792    -0.22500
C1849       C  0.76571108  0.56218035  0.69756655    -0.05600
H1850       H  0.76670210  0.52424364  0.66966385     0.15100
C1851       C  0.73228504  0.59967837  0.62877518    -0.15800
H1852       H  0.73415602  0.63709067  0.65624841     0.09500
H1853       H  0.66845025  0.64764637  0.71502694     0.07300
H1854       H  0.67720718  0.69001430  0.71606798     0.08500
H1855       H  0.69086600  0.66284879  0.73269720     0.07600
H1856       H  0.80394788  0.64630266  0.66867652     0.02400
H1857       H  0.81639215  0.61709650  0.68439253     0.02900
H1858       H  0.82779040  0.65892743  0.68648820     0.06400
H1859       H  0.77260464  0.53621337  0.69840851     0.05400
H1860       H  0.74410213  0.56615494  0.70568975    -0.00400
H1861       H  0.78625429  0.57684290  0.70243840     0.01100
H1862       H  0.70696447  0.60892882  0.62913687     0.04800
H1863       H  0.73311898  0.57973865  0.61943362     0.06700
H1864       H  0.74856719  0.61935395  0.62432980     0.07600
C1865       C  0.76703636  0.84302471  0.68301629    -0.22000
C1866       C  0.74608496  0.86961579  0.68462085     0.09900
C1867       C  0.72538981  0.87181728  0.69875075     0.10300
C1868       C  0.72608753  0.84730161  0.71101887    -0.17000
C1869       C  0.74773876  0.82112228  0.70973632    -0.27400
C1870       C  0.76831450  0.81880210  0.69545708     0.18700
C1871       C  0.74689474  0.89543877  0.67161610     0.12600
C1872       C  0.70329811  0.90054530  0.70109936    -0.11700
H1873       H  0.71036760  0.84911781  0.72195012     0.12900
C1874       C  0.79105303  0.79053670  0.69303147    -0.22600
H1875       H  0.78275473  0.84150434  0.67207227     0.08500
C1876       C  0.77082036  0.91989844  0.67191385     0.04900
C1877       C  0.77079755  0.94386852  0.65935540    -0.19800
C1878       C  0.74704492  0.94427005  0.64667056    -0.12100
C1879       C  0.72278307  0.91989400  0.64650063     0.13600
C1880       C  0.72311414  0.89574431  0.65898036    -0.22500
C1881       C  0.79594284  0.92102040  0.68569453    -0.05600
H1882       H  0.78912268  0.96273228  0.65956291     0.15100
C1883       C  0.69659530  0.91814627  0.63324657    -0.15800
H1884       H  0.70470236  0.87695294  0.65885053     0.09500
H1885       H  0.80986882  0.79046293  0.70303285     0.07300
H1886       H  0.80383059  0.79177369  0.68070968     0.08500
H1887       H  0.77716329  0.76747572  0.69344445     0.07600
H1888       H  0.68617715  0.90230597  0.69033853     0.02400
H1889       H  0.71799557  0.92306915  0.70177909     0.02900
H1890       H  0.68882351  0.89860236  0.71287879     0.06400
H1891       H  0.81254196  0.94204699  0.68422405     0.05400
H1892       H  0.81079022  0.89858660  0.68544552    -0.00400
H1893       H  0.78373689  0.92309034  0.69813919     0.01100
H1894       H  0.69755049  0.89418756  0.62690417     0.04800
H1895       H  0.69906898  0.93685917  0.62333048     0.06700
H1896       H  0.67244687  0.92101061  0.63931682     0.07600
C1897       C  0.77848637  0.86707478  0.80260898    -0.22000
C1898       C  0.74857858  0.87497365  0.81001083     0.09900
C1899       C  0.72027133  0.85898727  0.80453738     0.10300
C1900       C  0.72243114  0.83537785  0.79184870    -0.17000
C1901       C  0.75232804  0.82690261  0.78436015    -0.27400
C1902       C  0.78088065  0.84320347  0.78992656     0.18700
C1903       C  0.74717159  0.90025173  0.82339846     0.12600
C1904       C  0.68766738  0.86678169  0.81216805    -0.11700
H1905       H  0.70037181  0.82327406  0.78789228     0.12900
C1906       C  0.81398289  0.83594331  0.78271360    -0.22600
H1907       H  0.80011160  0.87961299  0.80687127     0.08500
C1908       C  0.75060719  0.89238040  0.84063294     0.04900
C1909       C  0.74818900  0.91699680  0.85285915    -0.19800
C1910       C  0.74219477  0.94933097  0.84826905    -0.12100
C1911       C  0.73776301  0.95696600  0.83099167     0.13600
C1912       C  0.74076818  0.93241775  0.81879559    -0.22500
C1913       C  0.75684045  0.85799468  0.84608799    -0.05600
H1914       H  0.75144641  0.91108375  0.86606607     0.15100
C1915       C  0.72877599  0.99044204  0.82498858    -0.15800
H1916       H  0.73742634  0.93829557  0.80558460     0.09500
H1917       H  0.83313094  0.85141794  0.78840951     0.07300
H1918       H  0.81404058  0.84053836  0.76892106     0.08500
H1919       H  0.82059387  0.81034851  0.78529580     0.07600
H1920       H  0.68210029  0.89285840  0.81034884     0.02400
H1921       H  0.68794050  0.86127035  0.82586137     0.02900
H1922       H  0.66784616  0.85246149  0.80628544     0.06400
H1923       H  0.75886173  0.85595184  0.86001046     0.05400
H1924       H  0.77987271  0.84920367  0.84042052    -0.00400
H1925       H  0.73660417  0.84216468  0.84189761     0.01100
H1926       H  0.74835477  0.00005648  0.81675791     0.04800
H1927       H  0.72468691  0.00779827  0.83542643     0.06700
H1928       H  0.70588400  0.98917439  0.81761849     0.07600
loop_ 
_geom_bond_atom_site_label_1 
_geom_bond_atom_site_label_2 
_geom_bond_distance 
_geom_bond_site_symmetry_2 
_ccdc_geom_bond_type 
O1           Cu9   2.002       .  S
O1           C11   1.278       .  A
O2           Cu9   2.009       .  S
O2           C12   1.278       .  A
O3           Cu9   2.008       .  S
O3           C13   1.276       .  A
O4           Cu9   2.011       .  S
O4           C14   1.279       .  A
O5          Cu10   2.024       .  S
O5           C14   1.279       .  A
O6          Cu10   2.011       .  S
O6           C13   1.279       .  A
O7          Cu10   2.009       .  S
O7           C12   1.277       .  A
O8          Cu10   2.007       .  S
O8           C11   1.277       .  A
Cu9         Cu10   2.364       .  S
C11        C1805   1.488       .  S
C12        C1869   1.481       .  S
C13        C1837   1.492       .  S
C14        C1901   1.502       .  S
O15         Cu23   2.002       .  S
O15          C25   1.277       .  A
O16         Cu23   2.000       .  S
O16          C26   1.276       .  A
O17         Cu23   2.010       .  S
O17          C27   1.279       .  A
O18         Cu23   2.006       .  S
O18          C28   1.277       .  A
O19         Cu24   2.014       .  S
O19          C28   1.278       .  A
O20         Cu24   2.010       .  S
O20          C27   1.277       .  A
O21         Cu24   2.007       .  S
O21          C26   1.278       .  A
O22         Cu24   2.018       .  S
O22          C25   1.279       .  A
Cu23        Cu24   2.372       .  S
C25        C1773   1.478       .  S
C26        C1709   1.476       .  S
C27        C1741   1.490       .  S
C28        C1677   1.476       .  S
O29         Cu37   2.001       .  S
O29          C39   1.279       .  A
O30         Cu37   2.005   1_655  S
O30          C40   1.277       .  A
O31         Cu37   2.005       .  S
O31          C41   1.278       .  A
O32         Cu37   2.004   1_655  S
O32          C42   1.278       .  A
O33         Cu38   1.995   1_655  S
O33          C42   1.275       .  A
O34         Cu38   1.997       .  S
O34          C41   1.276       .  A
O35         Cu38   2.004   1_655  S
O35          C40   1.277       .  A
O36         Cu38   2.000       .  S
O36          C39   1.276       .  A
Cu37        Cu38   2.370       .  S
C39        C1581   1.491       .  S
C40        C1645   1.473       .  S
C41        C1549   1.478       .  S
C42        C1613   1.480       .  S
C43        C1517   1.481       .  S
C43          C44   1.403       .  A
C43          C48   1.404       .  A
C44          C45   1.399       .  A
C44          H49   1.084       .  S
C45        C1846   1.470       .  S
C45          C46   1.399       .  A
C46          C47   1.398       .  A
C46          H50   1.084       .  S
C47        C1622   1.471       .  S
C47          C48   1.403       .  A
C48          H51   1.084       .  S
C52        C1485   1.475       .  S
C52          C53   1.402       .  A
C52          C57   1.399       .  A
C53          C54   1.404       .  A
C53          H58   1.084       .  S
C54        C1590   1.481       .  S
C54          C55   1.405       .  A
C55          C56   1.404       .  A
C55          H59   1.084       .  S
C56        C1686   1.477       .  S
C56          C57   1.401       .  A
C57          H60   1.084       .  S
O61         Cu69   1.997       .  S
O61          C71   1.275       .  A
O62         Cu69   2.004   1_655  S
O62          C72   1.276       .  A
O63         Cu69   2.010       .  S
O63          C73   1.278       .  A
O64         Cu69   2.011   1_655  S
O64          C74   1.278       .  A
O65         Cu70   2.011   1_655  S
O65          C74   1.279   1_545  A
O66         Cu70   1.995       .  S
O66          C73   1.275   1_545  A
O67         Cu70   2.017   1_655  S
O67          C72   1.280   1_545  A
O68         Cu70   2.016       .  S
O68          C71   1.279   1_545  A
Cu69        Cu70   2.371   1_565  S
C71        C1421   1.470       .  S
C72        C1357   1.485       .  S
C73        C1462   1.469       .  S
C74        C1389   1.498       .  S
C75        C1334   1.483       .  S
C75          C76   1.403       .  A
C75          C80   1.405   1_545  A
C76          C77   1.405   1_545  A
C76          H81   1.084       .  S
C77        C1430   1.481       .  S
C77          C78   1.404       .  A
C78          C79   1.403       .  A
C78          H82   1.084       .  S
C79        C1782   1.479       .  S
C79          C80   1.403       .  A
C80          H83   1.084       .  S
C84        C1293   1.474       .  S
C84          C85   1.402   1_545  A
C84          C89   1.401       .  A
C85          C86   1.404       .  A
C85          H90   1.084       .  S
C86        C1878   1.482       .  S
C86          C87   1.406       .  A
C87          C88   1.405       .  A
C87          H91   1.084       .  S
C88        C1398   1.480   1_565  S
C88          C89   1.400   1_565  A
C89          H92   1.084       .  S
O93        Cu101   2.010   1_556  S
O93         C103   1.279       .  A
O94        Cu101   2.016       .  S
O94         C104   1.277       .  A
O95        Cu101   2.013       .  S
O95         C105   1.280       .  A
O96        Cu101   2.020   1_556  S
O96         C106   1.279       .  A
O97        Cu102   2.002   1_556  S
O97         C106   1.277       .  A
O98        Cu102   2.007       .  S
O98         C105   1.276       .  A
O99        Cu102   2.020       .  S
O99         C104   1.279       .  A
O100       Cu102   2.015   1_556  S
O100        C103   1.278       .  A
Cu101      Cu102   2.365       .  S
C103       C1229   1.498       .  S
C104       C1206   1.480       .  S
C105       C1165   1.493       .  S
C106       C1261   1.490       .  S
C107       C1133   1.485       .  S
C107        C108   1.404       .  A
C107        C112   1.405       .  A
C108        C109   1.402       .  A
C108        H113   1.084       .  S
C109       C1814   1.478       .  S
C109        C110   1.403       .  A
C110        C111   1.403       .  A
C110        H114   1.084       .  S
C111       C1270   1.481       .  S
C111        C112   1.404       .  A
C112        H115   1.084       .  S
C116       C1101   1.476       .  S
C116        C117   1.401       .  A
C116        C121   1.404       .  A
C117        C118   1.399       .  A
C117        H122   1.084       .  S
C118       C1718   1.473       .  S
C118        C119   1.400       .  A
C119        C120   1.403       .  A
C119        H123   1.084       .  S
C120       C1238   1.481       .  S
C120        C121   1.404       .  A
C121        H124   1.084       .  S
O125       Cu133   2.014       .  S
O125        C135   1.277       .  A
O126       Cu133   2.006       .  S
O126        C136   1.277       .  A
O127       Cu133   2.005       .  S
O127        C137   1.276       .  A
O128       Cu133   2.005       .  S
O128        C138   1.276       .  A
O129       Cu134   2.008       .  S
O129        C138   1.279       .  A
O130       Cu134   2.008       .  S
O130        C137   1.279       .  A
O131       Cu134   2.009       .  S
O131        C136   1.278       .  A
O132       Cu134   2.013       .  S
O132        C135   1.280       .  A
Cu133      Cu134   2.362       .  S
C135       C1069   1.500       .  S
C136        C973   1.486       .  S
C137       C1005   1.493       .  S
C138       C1037   1.491       .  S
O139       Cu147   2.010   1_554  S
O139        C149   1.278   1_565  A
O140       Cu147   2.008       .  S
O140        C150   1.278   1_565  A
O141       Cu147   2.012       .  S
O141        C151   1.278   1_565  A
O142       Cu147   2.014   1_554  S
O142        C152   1.277   1_565  A
O143       Cu148   2.024       .  S
O143        C152   1.281       .  A
O144       Cu148   2.028   1_556  S
O144        C151   1.280       .  A
O145       Cu148   2.012   1_556  S
O145        C150   1.278       .  A
O146       Cu148   2.008       .  S
O146        C149   1.277       .  A
Cu147      Cu148   2.368   1_566  S
C149        C854   1.480   1_545  S
C150        C941   1.480       .  S
C151        C909   1.488       .  S
C152        C886   1.500       .  S
C153        C813   1.479       .  S
C153        C154   1.403   1_545  A
C153        C158   1.404       .  A
C154        C155   1.403       .  A
C154        H159   1.084       .  S
C155       C1750   1.481       .  S
C155        C156   1.405       .  A
C156        C157   1.405   1_565  A
C156        H160   1.084       .  S
C157        C950   1.479       .  S
C157        C158   1.403       .  A
C158        H161   1.084       .  S
C162        C781   1.483       .  S
C162        C163   1.404       .  A
C162        C167   1.403   1_545  A
C163        C164   1.405   1_545  A
C163        H168   1.084       .  S
C164        C918   1.488       .  S
C164        C165   1.409       .  A
C165        C166   1.409       .  A
C165        H169   1.084       .  S
C166       C1910   1.490       .  S
C166        C167   1.406       .  A
C167        H170   1.084       .  S
O171       Cu179   2.018       .  S
O171        C181   1.278       .  A
O172       Cu179   2.014       .  S
O172        C182   1.278       .  A
O173       Cu179   2.023       .  S
O173        C183   1.280       .  A
O174       Cu179   2.017       .  S
O174        C184   1.278       .  A
O175       Cu180   2.012       .  S
O175        C184   1.279       .  A
O176       Cu180   2.004       .  S
O176        C183   1.276       .  A
O177       Cu180   2.005       .  S
O177        C182   1.277       .  A
O178       Cu180   2.011       .  S
O178        C181   1.278       .  A
Cu179      Cu180   2.367       .  S
C181        C685   1.486       .  S
C182        C726   1.474       .  S
C183        C758   1.491       .  S
C184        C653   1.500       .  S
C185        C630   1.479       .  S
C185        C186   1.402       .  A
C185        C190   1.406       .  A
C186        C187   1.402   1_565  A
C186        H191   1.084       .  S
C187        C877   1.478       .  S
C187        C188   1.402       .  A
C188        C189   1.400       .  A
C188        H192   1.084       .  S
C189        C694   1.475       .  S
C189        C190   1.404   1_545  A
C190        H193   1.084       .  S
C194        C598   1.484       .  S
C194        C195   1.405       .  A
C194        C199   1.403       .  A
C195        C196   1.405       .  A
C195        H200   1.084       .  S
C196        C845   1.478       .  S
C196        C197   1.402   1_565  A
C197        C198   1.403       .  A
C197        H201   1.084       .  S
C198       C1014   1.479       .  S
C198        C199   1.402   1_545  A
C199        H202   1.084   1_565  S
C203        C557   1.480       .  S
C203        C204   1.400       .  A
C203        C208   1.406       .  A
C204        C205   1.401       .  A
C204        H209   1.084       .  S
C205        C982   1.475       .  S
C205        C206   1.403       .  A
C206        C207   1.403       .  A
C206        H210   1.084       .  S
C207       C1197   1.484       .  S
C207        C208   1.407       .  A
C208        H211   1.084       .  S
C212        C534   1.483       .  S
C212        C213   1.407       .  A
C212        C217   1.403       .  A
C213        C214   1.409       .  A
C213        H218   1.084       .  S
C214        C662   1.487       .  S
C214        C215   1.403       .  A
C215        C216   1.400       .  A
C215        H219   1.084       .  S
C216       C1174   1.474       .  S
C216        C217   1.401       .  A
C217        H220   1.084       .  S
C221        C502   1.479       .  S
C221        C222   1.401       .  A
C221        C226   1.402       .  A
C222        C223   1.402   1_565  A
C222        H227   1.084       .  S
C223        C749   1.479       .  S
C223        C224   1.404       .  A
C224        C225   1.406   1_545  A
C224        H228   1.084       .  S
C225       C1453   1.481       .  S
C225        C226   1.403       .  A
C226        H229   1.084       .  S
C230        C461   1.484       .  S
C230        C231   1.403   1_565  A
C230        C235   1.403       .  A
C231        C232   1.405       .  A
C231        H236   1.084       .  S
C232       C1078   1.486       .  S
C232        C233   1.407       .  A
C233        C234   1.408   1_545  A
C233        H237   1.084       .  S
C234       C1366   1.483       .  S
C234        C235   1.404       .  A
C235        H238   1.084       .  S
C239        C429   1.478       .  S
C239        C240   1.401       .  A
C239        C244   1.402       .  A
C240        C241   1.403       .  A
C240        H245   1.084       .  S
C241       C1046   1.480       .  S
C241        C242   1.405       .  A
C242        C243   1.402       .  A
C242        H246   1.084       .  S
C243       C1654   1.475       .  S
C243        C244   1.402       .  A
C244        H247   1.084       .  S
C248        C406   1.484       .  S
C248        C249   1.402       .  A
C248        C253   1.407       .  A
C249        C250   1.400       .  A
C249        H254   1.084       .  S
C250       C1558   1.473       .  S
C250        C251   1.402       .  A
C251        C252   1.404       .  A
C251        H255   1.084       .  S
C252        C717   1.482       .  S
C252        C253   1.405       .  A
C253        H256   1.084       .  S
N257        C262   1.353   1_655  A
N257        C261   1.355       .  A
N257        H289   1.037       .  S
N258        C265   1.354       .  A
N258        C266   1.352       .  A
N259        C264   1.356   1_655  A
N259        C263   1.353       .  A
N259        H290   1.039       .  S
N260        C267   1.351       .  A
N260        C268   1.353       .  A
C261        C269   1.387       .  A
C261        C277   1.418       .  A
C262        C278   1.417       .  A
C262        C270   1.388       .  A
C263        C271   1.388       .  A
C263        C280   1.417       .  A
C264        C279   1.415       .  A
C264        C272   1.385       .  A
C265        C277   1.416       .  A
C265        C273   1.386       .  A
C266        C280   1.416       .  A
C266        C274   1.387       .  A
C267        C275   1.387       .  A
C267        C278   1.414       .  A
C268        C276   1.385       .  A
C268        C279   1.413       .  A
C269        C270   1.377   1_655  A
C269        H281   1.082       .  S
C270        H282   1.082       .  S
C271        C272   1.376   1_655  A
C271        H283   1.082       .  S
C272        H284   1.082       .  S
C273        C274   1.374       .  A
C273        H285   1.083       .  S
C274        H286   1.082       .  S
C275        C276   1.373       .  A
C275        H287   1.082       .  S
C276        H288   1.082       .  S
C277        C589   1.494       .  S
C278        C621   1.484       .  S
C279        C525   1.495       .  S
C280        C566   1.489       .  S
N291        C296   1.353       .  A
N291        C295   1.356       .  A
N291        H323   1.036       .  S
N292        C299   1.353       .  A
N292        C300   1.352       .  A
N293        C298   1.356       .  A
N293        C297   1.353       .  A
N293        H324   1.036       .  S
N294        C301   1.350       .  A
N294        C302   1.352       .  A
C295        C303   1.387       .  A
C295        C311   1.419       .  A
C296        C312   1.418       .  A
C296        C304   1.387       .  A
C297        C305   1.388       .  A
C297        C314   1.419       .  A
C298        C313   1.418       .  A
C298        C306   1.386       .  A
C299        C311   1.416       .  A
C299        C307   1.386       .  A
C300        C314   1.416       .  A
C300        C308   1.387       .  A
C301        C309   1.387       .  A
C301        C312   1.413       .  A
C302        C310   1.386       .  A
C302        C313   1.413       .  A
C303        C304   1.375       .  A
C303        H315   1.082       .  S
C304        H316   1.082       .  S
C305        C306   1.377       .  A
C305        H317   1.082       .  S
C306        H318   1.082       .  S
C307        C308   1.372       .  A
C307        H319   1.082       .  S
C308        H320   1.082       .  S
C309        C310   1.370       .  A
C309        H321   1.082       .  S
C310        H322   1.082       .  S
C311        C470   1.495       .  S
C312        C493   1.485       .  S
C313        C397   1.490       .  S
C314        C438   1.488       .  S
N325        C330   1.354       .  A
N325        C329   1.351       .  A
N325        H357   1.038       .  S
N326        C333   1.351       .  A
N326        C334   1.353       .  A
N327        C332   1.352       .  A
N327        C331   1.354       .  A
N327        H358   1.038       .  S
N328        C335   1.353       .  A
N328        C336   1.350       .  A
C329        C337   1.387       .  A
C329        C345   1.414       .  A
C330        C346   1.415       .  A
C330        C338   1.386       .  A
C331        C339   1.387       .  A
C331        C348   1.414       .  A
C332        C347   1.414       .  A
C332        C340   1.388       .  A
C333        C345   1.414       .  A
C333        C341   1.387       .  A
C334        C348   1.413       .  A
C334        C342   1.385       .  A
C335        C343   1.386       .  A
C335        C346   1.414       .  A
C336        C344   1.387       .  A
C336        C347   1.413       .  A
C337        C338   1.375       .  A
C337        H349   1.082       .  S
C338        H350   1.082       .  S
C339        C340   1.375       .  A
C339        H351   1.082       .  S
C340        H352   1.082       .  S
C341        C342   1.372       .  A
C341        H353   1.082       .  S
C342        H354   1.082       .  S
C343        C344   1.373       .  A
C343        H355   1.082       .  S
C344        H356   1.082       .  S
C345       C1494   1.484       .  S
C346       C1325   1.493       .  S
C347       C1302   1.482       .  S
C348       C1526   1.490       .  S
N359        C364   1.351   1_655  A
N359        C363   1.353       .  A
N359        H391   1.043       .  S
N360        C367   1.352       .  A
N360        C368   1.351       .  A
N361        C366   1.356   1_655  A
N361        C365   1.354       .  A
N361        H392   1.034       .  S
N362        C369   1.349       .  A
N362        C370   1.350       .  A
C363        C371   1.387       .  A
C363        C379   1.416       .  A
C364        C380   1.415       .  A
C364        C372   1.388       .  A
C365        C373   1.386       .  A
C365        C382   1.416       .  A
C366        C381   1.416       .  A
C366        C374   1.385       .  A
C367        C379   1.414       .  A
C367        C375   1.385       .  A
C368        C382   1.415       .  A
C368        C376   1.387       .  A
C369        C377   1.387       .  A
C369        C380   1.411       .  A
C370        C378   1.387       .  A
C370        C381   1.411       .  A
C371        C372   1.376   1_655  A
C371        H383   1.082       .  S
C372        H384   1.082       .  S
C373        C374   1.376   1_655  A
C373        H385   1.082       .  S
C374        H386   1.082       .  S
C375        C376   1.373       .  A
C375        H387   1.082       .  S
C376        H388   1.082       .  S
C377        C378   1.373       .  A
C377        H389   1.083       .  S
C378        H390   1.082       .  S
C379       C1142   1.491       .  S
C380       C1110   1.479       .  S
C381        C822   1.492       .  S
C382        C790   1.493       .  S
C393        C394   1.401       .  A
C393        C398   1.402       .  A
C393        H403   1.084       .  S
C394        C399   1.482       .  S
C394        C395   1.411       .  A
C395        C396   1.406       .  A
C395        C400   1.506       .  S
C396        C397   1.405       .  A
C396        H401   1.084       .  S
C397        C398   1.415       .  A
C398        C402   1.507       .  S
C399        C404   1.411       .  A
C399        C408   1.401       .  A
C400        H416   1.110       .  S
C400        H417   1.110       .  S
C400        H418   1.111       .  S
C402        H413   1.111       .  S
C402        H414   1.110       .  S
C402        H415   1.108       .  S
C404        C405   1.405       .  A
C404        C409   1.506       .  S
C405        C406   1.406       .  A
C405        H410   1.084       .  S
C406        C407   1.416       .  A
C407        C408   1.403       .  A
C407        C411   1.507       .  S
C408        H412   1.084       .  S
C409        H419   1.111       .  S
C409        H420   1.110       .  S
C409        H421   1.110       .  S
C411        H422   1.110       .  S
C411        H423   1.107       .  S
C411        H424   1.111       .  S
C425        C426   1.401       .  A
C425        C430   1.402       .  A
C425        H435   1.085       .  S
C426        C431   1.480       .  S
C426        C427   1.410       .  A
C427        C428   1.404       .  A
C427        C432   1.506       .  S
C428        C429   1.404       .  A
C428        H433   1.084       .  S
C429        C430   1.416       .  A
C430        C434   1.508       .  S
C431        C436   1.410       .  A
C431        C440   1.402       .  A
C432        H448   1.110       .  S
C432        H449   1.110       .  S
C432        H450   1.111       .  S
C434        H445   1.110       .  S
C434        H446   1.110       .  S
C434        H447   1.107       .  S
C436        C437   1.404       .  A
C436        C441   1.506       .  S
C437        C438   1.403       .  A
C437        H442   1.084       .  S
C438        C439   1.415       .  A
C439        C440   1.403       .  A
C439        C443   1.507       .  S
C440        H444   1.084       .  S
C441        H451   1.110       .  S
C441        H452   1.110       .  S
C441        H453   1.110       .  S
C443        H454   1.110       .  S
C443        H455   1.108       .  S
C443        H456   1.110       .  S
C457        C458   1.403       .  A
C457        C462   1.406       .  A
C457        H467   1.084       .  S
C458        C463   1.487       .  S
C458        C459   1.412       .  A
C459        C460   1.406       .  A
C459        C464   1.505       .  S
C460        C461   1.404       .  A
C460        H465   1.084       .  S
C461        C462   1.414       .  A
C462        C466   1.506       .  S
C463        C468   1.413       .  A
C463        C472   1.401       .  A
C464        H480   1.110       .  S
C464        H481   1.110       .  S
C464        H482   1.111       .  S
C466        H477   1.111       .  S
C466        H478   1.110       .  S
C466        H479   1.110       .  S
C468        C469   1.408       .  A
C468        C473   1.506       .  S
C469        C470   1.404       .  A
C469        H474   1.084       .  S
C470        C471   1.416       .  A
C471        C472   1.405       .  A
C471        C475   1.508       .  S
C472        H476   1.084       .  S
C473        H483   1.110       .  S
C473        H484   1.110       .  S
C473        H485   1.110       .  S
C475        H486   1.110       .  S
C475        H487   1.108       .  S
C475        H488   1.110       .  S
C489        C490   1.402       .  A
C489        C494   1.402       .  A
C489        H499   1.085       .  S
C490        C495   1.478       .  S
C490        C491   1.410       .  A
C491        C492   1.401       .  A
C491        C496   1.505       .  S
C492        C493   1.402       .  A
C492        H497   1.084       .  S
C493        C494   1.416       .  A
C494        C498   1.508       .  S
C495        C500   1.409       .  A
C495        C504   1.401       .  A
C496        H512   1.110       .  S
C496        H513   1.110       .  S
C496        H514   1.111       .  S
C498        H509   1.111       .  S
C498        H510   1.110       .  S
C498        H511   1.108       .  S
C500        C501   1.403       .  A
C500        C505   1.506       .  S
C501        C502   1.405       .  A
C501        H506   1.084       .  S
C502        C503   1.417       .  A
C503        C504   1.402       .  A
C503        C507   1.508       .  S
C504        H508   1.085       .  S
C505        H515   1.111       .  S
C505        H516   1.110       .  S
C505        H517   1.110       .  S
C507        H518   1.110       .  S
C507        H519   1.107   1_565  S
C507        H520   1.110       .  S
C521        C522   1.402       .  A
C521        C526   1.406       .  A
C521        H531   1.084       .  S
C522        C527   1.488       .  S
C522        C523   1.412       .  A
C523        C524   1.407       .  A
C523        C528   1.506       .  S
C524        C525   1.405       .  A
C524        H529   1.084       .  S
C525        C526   1.417       .  A
C526        C530   1.508       .  S
C527        C532   1.412       .  A
C527        C536   1.403       .  A
C528        H544   1.110       .  S
C528        H545   1.110       .  S
C528        H546   1.110       .  S
C530        H541   1.110       .  S
C530        H542   1.110       .  S
C530        H543   1.108       .  S
C532        C533   1.406       .  A
C532        C537   1.506       .  S
C533        C534   1.403       .  A
C533        H538   1.084       .  S
C534        C535   1.416       .  A
C535        C536   1.406       .  A
C535        C539   1.508       .  S
C536        H540   1.084       .  S
C537        H547   1.111       .  S
C537        H548   1.110       .  S
C537        H549   1.110       .  S
C539        H550   1.110       .  S
C539        H551   1.108       .  S
C539        H552   1.110       .  S
C553        C554   1.402       .  A
C553        C558   1.403       .  A
C553        H563   1.085       .  S
C554        C559   1.483       .  S
C554        C555   1.411       .  A
C555        C556   1.404       .  A
C555        C560   1.506       .  S
C556        C557   1.405       .  A
C556        H561   1.084       .  S
C557        C558   1.415       .  A
C558        C562   1.507       .  S
C559        C564   1.412       .  A
C559        C568   1.401       .  A
C560        H576   1.110       .  S
C560        H577   1.110       .  S
C560        H578   1.111       .  S
C562        H573   1.110       .  S
C562        H574   1.111       .  S
C562        H575   1.107       .  S
C564        C565   1.403       .  A
C564        C569   1.506       .  S
C565        C566   1.403       .  A
C565        H570   1.084       .  S
C566        C567   1.416       .  A
C567        C568   1.403       .  A
C567        C571   1.507       .  S
C568        H572   1.084       .  S
C569        H579   1.111       .  S
C569        H580   1.110       .  S
C569        H581   1.111       .  S
C571        H582   1.110       .  S
C571        H583   1.108       .  S
C571        H584   1.110       .  S
C585        C586   1.403       .  A
C585        C590   1.407       .  A
C585        H595   1.084       .  S
C586        C591   1.487       .  S
C586        C587   1.412       .  A
C587        C588   1.406       .  A
C587        C592   1.505       .  S
C588        C589   1.403       .  A
C588        H593   1.084       .  S
C589        C590   1.416       .  A
C590        C594   1.506       .  S
C591        C596   1.413       .  A
C591        C600   1.402       .  A
C592        H608   1.110       .  S
C592        H609   1.110       .  S
C592        H610   1.111       .  S
C594        H605   1.110       .  S
C594        H606   1.110       .  S
C594        H607   1.108       .  S
C596        C597   1.407       .  A
C596        C601   1.506       .  S
C597        C598   1.404       .  A
C597        H602   1.084       .  S
C598        C599   1.415       .  A
C599        C600   1.406       .  A
C599        C603   1.508       .  S
C600        H604   1.084       .  S
C601        H611   1.111       .  S
C601        H612   1.110       .  S
C601        H613   1.110       .  S
C603        H614   1.109   1_565  S
C603        H615   1.110   1_565  S
C603        H616   1.111       .  S
C617        C618   1.403       .  A
C617        C622   1.405       .  A
C617        H627   1.084       .  S
C618        C623   1.480       .  S
C618        C619   1.410       .  A
C619        C620   1.400       .  A
C619        C624   1.506       .  S
C620        C621   1.400       .  A
C620        H625   1.084       .  S
C621        C622   1.415       .  A
C622        C626   1.507       .  S
C623        C628   1.411       .  A
C623        C632   1.400       .  A
C624        H640   1.110       .  S
C624        H641   1.110       .  S
C624        H642   1.111       .  S
C626        H637   1.110       .  S
C626        H638   1.110       .  S
C626        H639   1.108       .  S
C628        C629   1.405       .  A
C628        C633   1.506       .  S
C629        C630   1.404       .  A
C629        H634   1.084       .  S
C630        C631   1.416       .  A
C631        C632   1.402       .  A
C631        C635   1.508       .  S
C632        H636   1.084       .  S
C633        H643   1.111       .  S
C633        H644   1.110       .  S
C633        H645   1.110       .  S
C635        H646   1.110       .  S
C635        H647   1.107   1_565  S
C635        H648   1.110   1_565  S
C649        C650   1.399       .  A
C649        C654   1.409       .  A
C649        H659   1.084       .  S
C650        C655   1.484       .  S
C650        C651   1.408       .  A
C651        C652   1.403       .  A
C651        C656   1.507       .  S
C652        C653   1.411       .  A
C652        H657   1.083       .  S
C653        C654   1.425       .  A
C654        C658   1.508       .  S
C655        C660   1.411       .  A
C655        C664   1.401       .  A
C656        H672   1.110       .  S
C656        H673   1.110       .  S
C656        H674   1.111       .  S
C658        H669   1.110       .  S
C658        H670   1.111       .  S
C658        H671   1.110       .  S
C660        C661   1.406       .  A
C660        C665   1.506       .  S
C661        C662   1.405       .  A
C661        H666   1.084       .  S
C662        C663   1.417       .  A
C663        C664   1.405       .  A
C663        C667   1.508       .  S
C664        H668   1.084       .  S
C665        H675   1.111       .  S
C665        H676   1.110       .  S
C665        H677   1.110       .  S
C667        H678   1.111       .  S
C667        H679   1.108       .  S
C667        H680   1.110       .  S
C681        C682   1.401       .  A
C681        C686   1.406       .  A
C681        H691   1.084       .  S
C682        C687   1.482       .  S
C682        C683   1.410       .  A
C683        C684   1.404       .  A
C683        C688   1.507       .  S
C684        C685   1.407       .  A
C684        H689   1.084       .  S
C685        C686   1.418       .  A
C686        C690   1.507       .  S
C687        C692   1.411       .  A
C687        C696   1.402       .  A
C688        H704   1.110       .  S
C688        H705   1.110       .  S
C688        H706   1.111       .  S
C690        H701   1.111       .  S
C690        H702   1.111       .  S
C690        H703   1.109       .  S
C692        C693   1.404       .  A
C692        C697   1.506       .  S
C693        C694   1.402       .  A
C693        H698   1.084       .  S
C694        C695   1.414       .  A
C695        C696   1.404       .  A
C695        C699   1.507       .  S
C696        H700   1.084       .  S
C697        H707   1.111       .  S
C697        H708   1.110       .  S
C697        H709   1.110       .  S
C699        H710   1.111       .  S
C699        H711   1.108   1_545  S
C699        H712   1.110       .  S
C713        C714   1.401       .  A
C713        C718   1.405       .  A
C713        H723   1.084       .  S
C714        C719   1.483       .  S
C714        C715   1.411       .  A
C715        C716   1.405       .  A
C715        C720   1.506       .  S
C716        C717   1.404       .  A
C716        H721   1.084       .  S
C717        C718   1.417       .  A
C718        C722   1.507       .  S
C719        C724   1.411       .  A
C719        C728   1.402       .  A
C720        H736   1.110       .  S
C720        H737   1.110       .  S
C720        H738   1.111       .  S
C722        H733   1.110       .  S
C722        H734   1.111       .  S
C722        H735   1.108       .  S
C724        C725   1.403       .  A
C724        C729   1.506       .  S
C725        C726   1.403       .  A
C725        H730   1.084       .  S
C726        C727   1.416       .  A
C727        C728   1.405       .  A
C727        C731   1.509       .  S
C728        H732   1.084       .  S
C729        H739   1.111       .  S
C729        H740   1.110       .  S
C729        H741   1.110       .  S
C731        H742   1.111       .  S
C731        H743   1.107       .  S
C731        H744   1.110       .  S
C745        C746   1.401       .  A
C745        C750   1.404       .  A
C745        H755   1.084       .  S
C746        C751   1.482       .  S
C746        C747   1.411       .  A
C747        C748   1.405       .  A
C747        C752   1.506       .  S
C748        C749   1.403       .  A
C748        H753   1.084       .  S
C749        C750   1.413       .  A
C750        C754   1.507       .  S
C751        C756   1.409       .  A
C751        C760   1.398       .  A
C752        H768   1.110       .  S
C752        H769   1.110       .  S
C752        H770   1.110       .  S
C754        H765   1.109   1_545  S
C754        H766   1.111       .  S
C754        H767   1.111       .  S
C756        C757   1.405       .  A
C756        C761   1.506       .  S
C757        C758   1.408       .  A
C757        H762   1.084       .  S
C758        C759   1.423       .  A
C759        C760   1.404       .  A
C759        C763   1.508       .  S
C760        H764   1.084       .  S
C761        H771   1.111       .  S
C761        H772   1.110       .  S
C761        H773   1.110       .  S
C763        H774   1.111       .  S
C763        H775   1.109       .  S
C763        H776   1.111       .  S
C777        C778   1.403       .  A
C777        C782   1.407       .  A
C777        H787   1.084       .  S
C778        C783   1.487       .  S
C778        C779   1.412       .  A
C779        C780   1.406       .  A
C779        C784   1.506       .  S
C780        C781   1.403       .  A
C780        H785   1.084       .  S
C781        C782   1.413       .  A
C782        C786   1.506       .  S
C783        C788   1.412       .  A
C783        C792   1.402       .  A
C784        H800   1.110       .  S
C784        H801   1.110       .  S
C784        H802   1.110       .  S
C786        H797   1.111       .  S
C786        H798   1.111   1_545  S
C786        H799   1.110       .  S
C788        C789   1.405       .  A
C788        C793   1.505       .  S
C789        C790   1.404       .  A
C789        H794   1.084       .  S
C790        C791   1.417       .  A
C791        C792   1.404       .  A
C791        C795   1.508       .  S
C792        H796   1.084       .  S
C793        H803   1.111       .  S
C793        H804   1.110       .  S
C793        H805   1.110       .  S
C795        H806   1.110       .  S
C795        H807   1.108       .  S
C795        H808   1.110       .  S
C809        C810   1.401       .  A
C809        C814   1.402       .  A
C809        H819   1.085       .  S
C810        C815   1.483       .  S
C810        C811   1.411       .  A
C811        C812   1.405       .  A
C811        C816   1.506       .  S
C812        C813   1.404       .  A
C812        H817   1.084       .  S
C813        C814   1.415       .  A
C814        C818   1.508       .  S
C815        C820   1.411       .  A
C815        C824   1.402       .  A
C816        H832   1.110       .  S
C816        H833   1.111       .  S
C816        H834   1.111       .  S
C818        H829   1.111       .  S
C818        H830   1.110       .  S
C818        H831   1.108       .  S
C820        C821   1.403       .  A
C820        C825   1.506       .  S
C821        C822   1.405       .  A
C821        H826   1.084       .  S
C822        C823   1.417       .  A
C823        C824   1.404       .  A
C823        C827   1.508       .  S
C824        H828   1.084       .  S
C825        H835   1.111       .  S
C825        H836   1.110       .  S
C825        H837   1.110       .  S
C827        H838   1.110       .  S
C827        H839   1.107       .  S
C827        H840   1.110       .  S
C841        C842   1.401   1_545  A
C841        C846   1.403       .  A
C841        H851   1.085       .  S
C842        C847   1.481       .  S
C842        C843   1.411       .  A
C843        C844   1.405       .  A
C843        C848   1.506       .  S
C844        C845   1.403       .  A
C844        H849   1.084       .  S
C845        C846   1.415   1_565  A
C846        C850   1.507       .  S
C847        C852   1.411   1_565  A
C847        C856   1.401       .  A
C848        H864   1.110       .  S
C848        H865   1.109       .  S
C848        H866   1.111       .  S
C850        H861   1.110       .  S
C850        H862   1.111       .  S
C850        H863   1.108       .  S
C852        C853   1.404       .  A
C852        C857   1.507       .  S
C853        C854   1.405   1_545  A
C853        H858   1.084       .  S
C854        C855   1.416       .  A
C855        C856   1.404       .  A
C855        C859   1.508       .  S
C856        H860   1.084       .  S
C857        H867   1.111       .  S
C857        H868   1.110       .  S
C857        H869   1.109       .  S
C859        H870   1.111       .  S
C859        H871   1.109       .  S
C859        H872   1.111       .  S
C873        C874   1.401       .  A
C873        C878   1.403   1_545  A
C873        H883   1.084   1_545  S
C874        C879   1.482       .  S
C874        C875   1.410       .  A
C875        C876   1.404       .  A
C875        C880   1.506       .  S
C876        C877   1.404       .  A
C876        H881   1.084       .  S
C877        C878   1.416   1_545  A
C878        C882   1.509       .  S
C879        C884   1.407       .  A
C879        C888   1.398   1_545  A
C880        H896   1.110   1_545  S
C880        H897   1.110       .  S
C880        H898   1.111       .  S
C882        H893   1.110   1_565  S
C882        H894   1.110       .  S
C882        H895   1.107       .  S
C884        C885   1.405       .  A
C884        C889   1.507       .  S
C885        C886   1.411       .  A
C885        H890   1.083       .  S
C886        C887   1.426   1_545  A
C887        C888   1.406       .  A
C887        C891   1.508       .  S
C888        H892   1.084       .  S
C889        H899   1.111       .  S
C889        H900   1.110       .  S
C889        H901   1.110       .  S
C891        H902   1.110       .  S
C891        H903   1.110       .  S
C891        H904   1.111       .  S
C905        C906   1.403       .  A
C905        C910   1.410       .  A
C905        H915   1.084       .  S
C906        C911   1.491       .  S
C906        C907   1.412   1_545  A
C907        C908   1.406       .  A
C907        C912   1.506       .  S
C908        C909   1.405   1_565  A
C908        H913   1.084       .  S
C909        C910   1.417       .  A
C910        C914   1.507       .  S
C911        C916   1.412       .  A
C911        C920   1.404   1_545  A
C912        H928   1.110       .  S
C912        H929   1.110       .  S
C912        H930   1.111       .  S
C914        H925   1.111       .  S
C914        H926   1.111       .  S
C914        H927   1.110       .  S
C916        C917   1.407       .  A
C916        C921   1.506       .  S
C917        C918   1.404   1_545  A
C917        H922   1.084       .  S
C918        C919   1.417       .  A
C919        C920   1.409       .  A
C919        C923   1.507       .  S
C920        H924   1.084       .  S
C921        H931   1.111       .  S
C921        H932   1.110       .  S
C921        H933   1.110       .  S
C923        H934   1.111       .  S
C923        H935   1.108       .  S
C923        H936   1.110       .  S
C937        C938   1.401   1_565  A
C937        C942   1.404       .  A
C937        H947   1.084       .  S
C938        C943   1.485       .  S
C938        C939   1.411       .  A
C939        C940   1.405       .  A
C939        C944   1.506       .  S
C940        C941   1.404       .  A
C940        H945   1.084       .  S
C941        C942   1.418   1_545  A
C942        C946   1.509       .  S
C943        C948   1.412       .  A
C943        C952   1.402   1_545  A
C944        H960   1.109       .  S
C944        H961   1.111       .  S
C944        H962   1.111       .  S
C946        H957   1.111       .  S
C946        H958   1.110       .  S
C946        H959   1.106       .  S
C948        C949   1.407       .  A
C948        C953   1.506       .  S
C949        C950   1.404       .  A
C949        H954   1.084       .  S
C950        C951   1.414   1_545  A
C951        C952   1.402       .  A
C951        C955   1.507       .  S
C952        H956   1.085       .  S
C953        H963   1.111       .  S
C953        H964   1.110       .  S
C953        H965   1.110       .  S
C955        H966   1.110       .  S
C955        H967   1.108       .  S
C955        H968   1.110       .  S
C969        C970   1.398       .  A
C969        C974   1.402       .  A
C969        H979   1.084       .  S
C970        C975   1.477       .  S
C970        C971   1.409       .  A
C971        C972   1.404       .  A
C971        C976   1.507       .  S
C972        C973   1.409       .  A
C972        H977   1.084       .  S
C973        C974   1.420       .  A
C974        C978   1.508       .  S
C975        C980   1.410       .  A
C975        C984   1.401       .  A
C976        H992   1.110       .  S
C976        H993   1.111       .  S
C976        H994   1.111       .  S
C978        H989   1.111       .  S
C978        H990   1.109       .  S
C978        H991   1.111       .  S
C980        C981   1.402       .  A
C980        C985   1.506       .  S
C981        C982   1.403       .  A
C981        H986   1.084       .  S
C982        C983   1.415       .  A
C983        C984   1.401       .  A
C983        C987   1.508       .  S
C984        H988   1.085       .  S
C985        H995   1.111       .  S
C985        H996   1.110       .  S
C985        H997   1.110       .  S
C987        H998   1.111       .  S
C987        H999   1.108       .  S
C987       H1000   1.110       .  S
C1001      C1002   1.398       .  A
C1001      C1006   1.404       .  A
C1001      H1011   1.084       .  S
C1002      C1007   1.478       .  S
C1002      C1003   1.407       .  A
C1003      C1004   1.402       .  A
C1003      C1008   1.507       .  S
C1004      C1005   1.410       .  A
C1004      H1009   1.083       .  S
C1005      C1006   1.424       .  A
C1006      C1010   1.509       .  S
C1007      C1012   1.410       .  A
C1007      C1016   1.400       .  A
C1008      H1024   1.110       .  S
C1008      H1025   1.110       .  S
C1008      H1026   1.111       .  S
C1010      H1021   1.110       .  S
C1010      H1022   1.111       .  S
C1010      H1023   1.111       .  S
C1012      C1013   1.403       .  A
C1012      C1017   1.506       .  S
C1013      C1014   1.404       .  A
C1013      H1018   1.084       .  S
C1014      C1015   1.417       .  A
C1015      C1016   1.402       .  A
C1015      C1019   1.508       .  S
C1016      H1020   1.085       .  S
C1017      H1027   1.111       .  S
C1017      H1028   1.110       .  S
C1017      H1029   1.110       .  S
C1019      H1030   1.110       .  S
C1019      H1031   1.107       .  S
C1019      H1032   1.110       .  S
C1033      C1034   1.399       .  A
C1033      C1038   1.404       .  A
C1033      H1043   1.084       .  S
C1034      C1039   1.479       .  S
C1034      C1035   1.407       .  A
C1035      C1036   1.402       .  A
C1035      C1040   1.506       .  S
C1036      C1037   1.409       .  A
C1036      H1041   1.083       .  S
C1037      C1038   1.423       .  A
C1038      C1042   1.508       .  S
C1039      C1044   1.409       .  A
C1039      C1048   1.401       .  A
C1040      H1056   1.110       .  S
C1040      H1057   1.110       .  S
C1040      H1058   1.111       .  S
C1042      H1053   1.111       .  S
C1042      H1054   1.110       .  S
C1042      H1055   1.111       .  S
C1044      C1045   1.402       .  A
C1044      C1049   1.506       .  S
C1045      C1046   1.405       .  A
C1045      H1050   1.084       .  S
C1046      C1047   1.417       .  A
C1047      C1048   1.403       .  A
C1047      C1051   1.508       .  S
C1048      H1052   1.085       .  S
C1049      H1059   1.111       .  S
C1049      H1060   1.110       .  S
C1049      H1061   1.110       .  S
C1051      H1062   1.111       .  S
C1051      H1063   1.107       .  S
C1051      H1064   1.110       .  S
C1065      C1066   1.402       .  A
C1065      C1070   1.411       .  A
C1065      H1075   1.084       .  S
C1066      C1071   1.489       .  S
C1066      C1067   1.408       .  A
C1067      C1068   1.403       .  A
C1067      C1072   1.507       .  S
C1068      C1069   1.409       .  A
C1068      H1073   1.083       .  S
C1069      C1070   1.425       .  A
C1070      C1074   1.508       .  S
C1071      C1076   1.412       .  A
C1071      C1080   1.402       .  A
C1072      H1088   1.110       .  S
C1072      H1089   1.110       .  S
C1072      H1090   1.111       .  S
C1074      H1085   1.111       .  S
C1074      H1086   1.110       .  S
C1074      H1087   1.110       .  S
C1076      C1077   1.409       .  A
C1076      C1081   1.506       .  S
C1077      C1078   1.405       .  A
C1077      H1082   1.084       .  S
C1078      C1079   1.417       .  A
C1079      C1080   1.405       .  A
C1079      C1083   1.508       .  S
C1080      H1084   1.084       .  S
C1081      H1091   1.111       .  S
C1081      H1092   1.110       .  S
C1081      H1093   1.110       .  S
C1083      H1094   1.110       .  S
C1083      H1095   1.108   1_545  S
C1083      H1096   1.111       .  S
C1097      C1098   1.399       .  A
C1097      C1102   1.401       .  A
C1097      H1107   1.084       .  S
C1098      C1103   1.472       .  S
C1098      C1099   1.410       .  A
C1099      C1100   1.402       .  A
C1099      C1104   1.507       .  S
C1100      C1101   1.403       .  A
C1100      H1105   1.084       .  S
C1101      C1102   1.414       .  A
C1102      C1106   1.507       .  S
C1103      C1108   1.410       .  A
C1103      C1112   1.400       .  A
C1104      H1120   1.110       .  S
C1104      H1121   1.110       .  S
C1104      H1122   1.111       .  S
C1106      H1117   1.111       .  S
C1106      H1118   1.109       .  S
C1106      H1119   1.110       .  S
C1108      C1109   1.401       .  A
C1108      C1113   1.506       .  S
C1109      C1110   1.402       .  A
C1109      H1114   1.084       .  S
C1110      C1111   1.413       .  A
C1111      C1112   1.399       .  A
C1111      C1115   1.507       .  S
C1112      H1116   1.084       .  S
C1113      H1123   1.111       .  S
C1113      H1124   1.110       .  S
C1113      H1125   1.110       .  S
C1115      H1126   1.110       .  S
C1115      H1127   1.108       .  S
C1115      H1128   1.110       .  S
C1129      C1130   1.402       .  A
C1129      C1134   1.404       .  A
C1129      H1139   1.085       .  S
C1130      C1135   1.486       .  S
C1130      C1131   1.412       .  A
C1131      C1132   1.405       .  A
C1131      C1136   1.506       .  S
C1132      C1133   1.405       .  A
C1132      H1137   1.084       .  S
C1133      C1134   1.417       .  A
C1134      C1138   1.508       .  S
C1135      C1140   1.413       .  A
C1135      C1144   1.402       .  A
C1136      H1152   1.109       .  S
C1136      H1153   1.110       .  S
C1136      H1154   1.111       .  S
C1138      H1149   1.110       .  S
C1138      H1150   1.111       .  S
C1138      H1151   1.107       .  S
C1140      C1141   1.406       .  A
C1140      C1145   1.506       .  S
C1141      C1142   1.403       .  A
C1141      H1146   1.084       .  S
C1142      C1143   1.415       .  A
C1143      C1144   1.403       .  A
C1143      C1147   1.507       .  S
C1144      H1148   1.084       .  S
C1145      H1155   1.111       .  S
C1145      H1156   1.109       .  S
C1145      H1157   1.110       .  S
C1147      H1158   1.110       .  S
C1147      H1159   1.108       .  S
C1147      H1160   1.110       .  S
C1161      C1162   1.400       .  A
C1161      C1166   1.406       .  A
C1161      H1171   1.084       .  S
C1162      C1167   1.481       .  S
C1162      C1163   1.408       .  A
C1163      C1164   1.402       .  A
C1163      C1168   1.507       .  S
C1164      C1165   1.408       .  A
C1164      H1169   1.083       .  S
C1165      C1166   1.424       .  A
C1166      C1170   1.508       .  S
C1167      C1172   1.412       .  A
C1167      C1176   1.401       .  A
C1168      H1184   1.110       .  S
C1168      H1185   1.111       .  S
C1168      H1186   1.111       .  S
C1170      H1181   1.111       .  S
C1170      H1182   1.110       .  S
C1170      H1183   1.110       .  S
C1172      C1173   1.404       .  A
C1172      C1177   1.506       .  S
C1173      C1174   1.402       .  A
C1173      H1178   1.084       .  S
C1174      C1175   1.414       .  A
C1175      C1176   1.402       .  A
C1175      C1179   1.507       .  S
C1176      H1180   1.085       .  S
C1177      H1187   1.111       .  S
C1177      H1188   1.110       .  S
C1177      H1189   1.110       .  S
C1179      H1190   1.110       .  S
C1179      H1191   1.108       .  S
C1179      H1192   1.111       .  S
C1193      C1194   1.403       .  A
C1193      C1198   1.406       .  A
C1193      H1203   1.084       .  S
C1194      C1199   1.487       .  S
C1194      C1195   1.411       .  A
C1195      C1196   1.406       .  A
C1195      C1200   1.506       .  S
C1196      C1197   1.404       .  A
C1196      H1201   1.084       .  S
C1197      C1198   1.416       .  A
C1198      C1202   1.508       .  S
C1199      C1204   1.412       .  A
C1199      C1208   1.402       .  A
C1200      H1216   1.110       .  S
C1200      H1217   1.110       .  S
C1200      H1218   1.110       .  S
C1202      H1213   1.110       .  S
C1202      H1214   1.110       .  S
C1202      H1215   1.107       .  S
C1204      C1205   1.407       .  A
C1204      C1209   1.506       .  S
C1205      C1206   1.405       .  A
C1205      H1210   1.084       .  S
C1206      C1207   1.416       .  A
C1207      C1208   1.405       .  A
C1207      C1211   1.508       .  S
C1208      H1212   1.084       .  S
C1209      H1219   1.111       .  S
C1209      H1220   1.110       .  S
C1209      H1221   1.110       .  S
C1211      H1222   1.110       .  S
C1211      H1223   1.108       .  S
C1211      H1224   1.111       .  S
C1225      C1226   1.398       .  A
C1225      C1230   1.406       .  A
C1225      H1235   1.084       .  S
C1226      C1231   1.481       .  S
C1226      C1227   1.408       .  A
C1227      C1228   1.403       .  A
C1227      C1232   1.507       .  S
C1228      C1229   1.411       .  A
C1228      H1233   1.083       .  S
C1229      C1230   1.424       .  A
C1230      C1234   1.508       .  S
C1231      C1236   1.410       .  A
C1231      C1240   1.400       .  A
C1232      H1248   1.110       .  S
C1232      H1249   1.111       .  S
C1232      H1250   1.111       .  S
C1234      H1245   1.111       .  S
C1234      H1246   1.110       .  S
C1234      H1247   1.110       .  S
C1236      C1237   1.404       .  A
C1236      C1241   1.506       .  S
C1237      C1238   1.405       .  A
C1237      H1242   1.084       .  S
C1238      C1239   1.417       .  A
C1239      C1240   1.402       .  A
C1239      C1243   1.508       .  S
C1240      H1244   1.085       .  S
C1241      H1251   1.111       .  S
C1241      H1252   1.110       .  S
C1241      H1253   1.110       .  S
C1243      H1254   1.110       .  S
C1243      H1255   1.107       .  S
C1243      H1256   1.110       .  S
C1257      C1258   1.401       .  A
C1257      C1262   1.406       .  A
C1257      H1267   1.084       .  S
C1258      C1263   1.483       .  S
C1258      C1259   1.409       .  A
C1259      C1260   1.404       .  A
C1259      C1264   1.507       .  S
C1260      C1261   1.409       .  A
C1260      H1265   1.084       .  S
C1261      C1262   1.419       .  A
C1262      C1266   1.507       .  S
C1263      C1268   1.412       .  A
C1263      C1272   1.402       .  A
C1264      H1280   1.110       .  S
C1264      H1281   1.110       .  S
C1264      H1282   1.111       .  S
C1266      H1277   1.111       .  S
C1266      H1278   1.110       .  S
C1266      H1279   1.111       .  S
C1268      C1269   1.404       .  A
C1268      C1273   1.506       .  S
C1269      C1270   1.403       .  A
C1269      H1274   1.084       .  S
C1270      C1271   1.416       .  A
C1271      C1272   1.404       .  A
C1271      C1275   1.507       .  S
C1272      H1276   1.084       .  S
C1273      H1283   1.111       .  S
C1273      H1284   1.110       .  S
C1273      H1285   1.110       .  S
C1275      H1286   1.111       .  S
C1275      H1287   1.107       .  S
C1275      H1288   1.110       .  S
C1289      C1290   1.402       .  A
C1289      C1294   1.404       .  A
C1289      H1299   1.084       .  S
C1290      C1295   1.475       .  S
C1290      C1291   1.409       .  A
C1291      C1292   1.399       .  A
C1291      C1296   1.506       .  S
C1292      C1293   1.402       .  A
C1292      H1297   1.084       .  S
C1293      C1294   1.413       .  A
C1294      C1298   1.506       .  S
C1295      C1300   1.411       .  A
C1295      C1304   1.399       .  A
C1296      H1312   1.110       .  S
C1296      H1313   1.110       .  S
C1296      H1314   1.111       .  S
C1298      H1309   1.111       .  S
C1298      H1310   1.109   1_545  S
C1298      H1311   1.110   1_545  S
C1300      C1301   1.403       .  A
C1300      C1305   1.506       .  S
C1301      C1302   1.403       .  A
C1301      H1306   1.084       .  S
C1302      C1303   1.414       .  A
C1303      C1304   1.399       .  A
C1303      C1307   1.507       .  S
C1304      H1308   1.085       .  S
C1305      H1315   1.111       .  S
C1305      H1316   1.110       .  S
C1305      H1317   1.110       .  S
C1307      H1318   1.110       .  S
C1307      H1319   1.108       .  S
C1307      H1320   1.110       .  S
C1321      C1322   1.403       .  A
C1321      C1326   1.405       .  A
C1321      H1331   1.084       .  S
C1322      C1327   1.488       .  S
C1322      C1323   1.413       .  A
C1323      C1324   1.405       .  A
C1323      C1328   1.506       .  S
C1324      C1325   1.404       .  A
C1324      H1329   1.084       .  S
C1325      C1326   1.417       .  A
C1326      C1330   1.508       .  S
C1327      C1332   1.412       .  A
C1327      C1336   1.403       .  A
C1328      H1344   1.109       .  S
C1328      H1345   1.111       .  S
C1328      H1346   1.111       .  S
C1330      H1341   1.111       .  S
C1330      H1342   1.110       .  S
C1330      H1343   1.107       .  S
C1332      C1333   1.405       .  A
C1332      C1337   1.506       .  S
C1333      C1334   1.404       .  A
C1333      H1338   1.084       .  S
C1334      C1335   1.416       .  A
C1335      C1336   1.405       .  A
C1335      C1339   1.508       .  S
C1336      H1340   1.084       .  S
C1337      H1347   1.111       .  S
C1337      H1348   1.109       .  S
C1337      H1349   1.110       .  S
C1339      H1350   1.110       .  S
C1339      H1351   1.107   1_545  S
C1339      H1352   1.110   1_545  S
C1353      C1354   1.402       .  A
C1353      C1358   1.408       .  A
C1353      H1363   1.084       .  S
C1354      C1359   1.486       .  S
C1354      C1355   1.410   1_565  A
C1355      C1356   1.404       .  A
C1355      C1360   1.506       .  S
C1356      C1357   1.405   1_545  A
C1356      H1361   1.084       .  S
C1357      C1358   1.419       .  A
C1358      C1362   1.508       .  S
C1359      C1364   1.412       .  A
C1359      C1368   1.402   1_565  A
C1360      H1376   1.110       .  S
C1360      H1377   1.110       .  S
C1360      H1378   1.110       .  S
C1362      H1373   1.110       .  S
C1362      H1374   1.111       .  S
C1362      H1375   1.111       .  S
C1364      C1365   1.408       .  A
C1364      C1369   1.506       .  S
C1365      C1366   1.405       .  A
C1365      H1370   1.084       .  S
C1366      C1367   1.412   1_565  A
C1367      C1368   1.404       .  A
C1367      C1371   1.506       .  S
C1368      H1372   1.084       .  S
C1369      H1379   1.111       .  S
C1369      H1380   1.110       .  S
C1369      H1381   1.110       .  S
C1371      H1382   1.111       .  S
C1371      H1383   1.110       .  S
C1371      H1384   1.110       .  S
C1385      C1386   1.399       .  A
C1385      C1390   1.404       .  A
C1385      H1395   1.084       .  S
C1386      C1391   1.484   1_565  S
C1386      C1387   1.408   1_565  A
C1387      C1388   1.405       .  A
C1387      C1392   1.507       .  S
C1388      C1389   1.412   1_545  A
C1388      H1393   1.083       .  S
C1389      C1390   1.424       .  A
C1390      C1394   1.508       .  S
C1391      C1396   1.412   1_545  A
C1391      C1400   1.403       .  A
C1392      H1408   1.110       .  S
C1392      H1409   1.111       .  S
C1392      H1410   1.111       .  S
C1394      H1405   1.111       .  S
C1394      H1406   1.110       .  S
C1394      H1407   1.111       .  S
C1396      C1397   1.403       .  A
C1396      C1401   1.507       .  S
C1397      C1398   1.402   1_565  A
C1397      H1402   1.084       .  S
C1398      C1399   1.413       .  A
C1399      C1400   1.406       .  A
C1399      C1403   1.506       .  S
C1400      H1404   1.084       .  S
C1401      H1411   1.111       .  S
C1401      H1412   1.109       .  S
C1401      H1413   1.110   1_565  S
C1403      H1414   1.109   1_545  S
C1403      H1415   1.111       .  S
C1403      H1416   1.111       .  S
C1417      C1418   1.401   1_545  A
C1417      C1422   1.402       .  A
C1417      H1427   1.085       .  S
C1418      C1423   1.477       .  S
C1418      C1419   1.410       .  A
C1419      C1420   1.402       .  A
C1419      C1424   1.506       .  S
C1420      C1421   1.403       .  A
C1420      H1425   1.084       .  S
C1421      C1422   1.415   1_565  A
C1422      C1426   1.507       .  S
C1423      C1428   1.410       .  A
C1423      C1432   1.400   1_565  A
C1424      H1440   1.110       .  S
C1424      H1441   1.109       .  S
C1424      H1442   1.111       .  S
C1426      H1437   1.110       .  S
C1426      H1438   1.110       .  S
C1426      H1439   1.107       .  S
C1428      C1429   1.403       .  A
C1428      C1433   1.507       .  S
C1429      C1430   1.405       .  A
C1429      H1434   1.084       .  S
C1430      C1431   1.417   1_565  A
C1431      C1432   1.402       .  A
C1431      C1435   1.507       .  S
C1432      H1436   1.085       .  S
C1433      H1443   1.111       .  S
C1433      H1444   1.110       .  S
C1433      H1445   1.109       .  S
C1435      H1446   1.111       .  S
C1435      H1447   1.107       .  S
C1435      H1448   1.110       .  S
C1449      C1450   1.399       .  A
C1449      C1454   1.402       .  A
C1449      H1459   1.085       .  S
C1450      C1455   1.477       .  S
C1450      C1451   1.410   1_565  A
C1451      C1452   1.404       .  A
C1451      C1456   1.507       .  S
C1452      C1453   1.404   1_545  A
C1452      H1457   1.084       .  S
C1453      C1454   1.418       .  A
C1454      C1458   1.508       .  S
C1455      C1460   1.410   1_565  A
C1455      C1464   1.400       .  A
C1456      H1472   1.110       .  S
C1456      H1473   1.110       .  S
C1456      H1474   1.111       .  S
C1458      H1469   1.110       .  S
C1458      H1470   1.111       .  S
C1458      H1471   1.107       .  S
C1460      C1461   1.401       .  A
C1460      C1465   1.506       .  S
C1461      C1462   1.403   1_545  A
C1461      H1466   1.085       .  S
C1462      C1463   1.415       .  A
C1463      C1464   1.402       .  A
C1463      C1467   1.508       .  S
C1464      H1468   1.084       .  S
C1465      H1475   1.111       .  S
C1465      H1476   1.111   1_545  S
C1465      H1477   1.110       .  S
C1467      H1478   1.110       .  S
C1467      H1479   1.107       .  S
C1467      H1480   1.110       .  S
C1481      C1482   1.401       .  A
C1481      C1486   1.402       .  A
C1481      H1491   1.084       .  S
C1482      C1487   1.478       .  S
C1482      C1483   1.411       .  A
C1483      C1484   1.403       .  A
C1483      C1488   1.506       .  S
C1484      C1485   1.403       .  A
C1484      H1489   1.084       .  S
C1485      C1486   1.414       .  A
C1486      C1490   1.507       .  S
C1487      C1492   1.410       .  A
C1487      C1496   1.401       .  A
C1488      H1504   1.110       .  S
C1488      H1505   1.110       .  S
C1488      H1506   1.111       .  S
C1490      H1501   1.110       .  S
C1490      H1502   1.110       .  S
C1490      H1503   1.108       .  S
C1492      C1493   1.402       .  A
C1492      C1497   1.506       .  S
C1493      C1494   1.402       .  A
C1493      H1498   1.084       .  S
C1494      C1495   1.415       .  A
C1495      C1496   1.402       .  A
C1495      C1499   1.508       .  S
C1496      H1500   1.084       .  S
C1497      H1507   1.111       .  S
C1497      H1508   1.110       .  S
C1497      H1509   1.110       .  S
C1499      H1510   1.110       .  S
C1499      H1511   1.108       .  S
C1499      H1512   1.110       .  S
C1513      C1514   1.402       .  A
C1513      C1518   1.404       .  A
C1513      H1523   1.084       .  S
C1514      C1519   1.483       .  S
C1514      C1515   1.410       .  A
C1515      C1516   1.402       .  A
C1515      C1520   1.506       .  S
C1516      C1517   1.405       .  A
C1516      H1521   1.084       .  S
C1517      C1518   1.417       .  A
C1518      C1522   1.508       .  S
C1519      C1524   1.411       .  A
C1519      C1528   1.401       .  A
C1520      H1536   1.110       .  S
C1520      H1537   1.110       .  S
C1520      H1538   1.111       .  S
C1522      H1533   1.110       .  S
C1522      H1534   1.110       .  S
C1522      H1535   1.107       .  S
C1524      C1525   1.406       .  A
C1524      C1529   1.506       .  S
C1525      C1526   1.404       .  A
C1525      H1530   1.084       .  S
C1526      C1527   1.415       .  A
C1527      C1528   1.403       .  A
C1527      C1531   1.507       .  S
C1528      H1532   1.084       .  S
C1529      H1539   1.111       .  S
C1529      H1540   1.110       .  S
C1529      H1541   1.111       .  S
C1531      H1542   1.110       .  S
C1531      H1543   1.108       .  S
C1531      H1544   1.110       .  S
C1545      C1546   1.399       .  A
C1545      C1550   1.402       .  A
C1545      H1555   1.084       .  S
C1546      C1551   1.476       .  S
C1546      C1547   1.409       .  A
C1547      C1548   1.403       .  A
C1547      C1552   1.506       .  S
C1548      C1549   1.405       .  A
C1548      H1553   1.084       .  S
C1549      C1550   1.418       .  A
C1550      C1554   1.509       .  S
C1551      C1556   1.410       .  A
C1551      C1560   1.401       .  A
C1552      H1568   1.110       .  S
C1552      H1569   1.110       .  S
C1552      H1570   1.111       .  S
C1554      H1565   1.109       .  S
C1554      H1566   1.111       .  S
C1554      H1567   1.111       .  S
C1556      C1557   1.402       .  A
C1556      C1561   1.506       .  S
C1557      C1558   1.402       .  A
C1557      H1562   1.084       .  S
C1558      C1559   1.414       .  A
C1559      C1560   1.401       .  A
C1559      C1563   1.507       .  S
C1560      H1564   1.085       .  S
C1561      H1571   1.111       .  S
C1561      H1572   1.110       .  S
C1561      H1573   1.110       .  S
C1563      H1574   1.111       .  S
C1563      H1575   1.108       .  S
C1563      H1576   1.110       .  S
C1577      C1578   1.400       .  A
C1577      C1582   1.405       .  A
C1577      H1587   1.084       .  S
C1578      C1583   1.481       .  S
C1578      C1579   1.408       .  A
C1579      C1580   1.400       .  A
C1579      C1584   1.507       .  S
C1580      C1581   1.409       .  A
C1580      H1585   1.083       .  S
C1581      C1582   1.423       .  A
C1582      C1586   1.509       .  S
C1583      C1588   1.411       .  A
C1583      C1592   1.402       .  A
C1584      H1600   1.109       .  S
C1584      H1601   1.110       .  S
C1584      H1602   1.111       .  S
C1586      H1597   1.111       .  S
C1586      H1598   1.110       .  S
C1586      H1599   1.110       .  S
C1588      C1589   1.403       .  A
C1588      C1593   1.507       .  S
C1589      C1590   1.404       .  A
C1589      H1594   1.084       .  S
C1590      C1591   1.414       .  A
C1591      C1592   1.403       .  A
C1591      C1595   1.507       .  S
C1592      H1596   1.084       .  S
C1593      H1603   1.111       .  S
C1593      H1604   1.109       .  S
C1593      H1605   1.110       .  S
C1595      H1606   1.108       .  S
C1595      H1607   1.110       .  S
C1595      H1608   1.111       .  S
C1609      C1610   1.400       .  A
C1609      C1614   1.404       .  A
C1609      H1619   1.084       .  S
C1610      C1615   1.475       .  S
C1610      C1611   1.408       .  A
C1611      C1612   1.399       .  A
C1611      C1616   1.507       .  S
C1612      C1613   1.405       .  A
C1612      H1617   1.084       .  S
C1613      C1614   1.420       .  A
C1614      C1618   1.509       .  S
C1615      C1620   1.410       .  A
C1615      C1624   1.400       .  A
C1616      H1632   1.110       .  S
C1616      H1633   1.110       .  S
C1616      H1634   1.111       .  S
C1618      H1629   1.111       .  S
C1618      H1630   1.109       .  S
C1618      H1631   1.111       .  S
C1620      C1621   1.402       .  A
C1620      C1625   1.506       .  S
C1621      C1622   1.403       .  A
C1621      H1626   1.084       .  S
C1622      C1623   1.413       .  A
C1623      C1624   1.400       .  A
C1623      C1627   1.508       .  S
C1624      H1628   1.085       .  S
C1625      H1635   1.111       .  S
C1625      H1636   1.110       .  S
C1625      H1637   1.110       .  S
C1627      H1638   1.110       .  S
C1627      H1639   1.108       .  S
C1627      H1640   1.110       .  S
C1641      C1642   1.400       .  A
C1641      C1646   1.402       .  A
C1641      H1651   1.085       .  S
C1642      C1647   1.479       .  S
C1642      C1643   1.410       .  A
C1643      C1644   1.403       .  A
C1643      C1648   1.506       .  S
C1644      C1645   1.403       .  A
C1644      H1649   1.084       .  S
C1645      C1646   1.417       .  A
C1646      C1650   1.509       .  S
C1647      C1652   1.411       .  A
C1647      C1656   1.400       .  A
C1648      H1664   1.110       .  S
C1648      H1665   1.110       .  S
C1648      H1666   1.111       .  S
C1650      H1661   1.111       .  S
C1650      H1662   1.110       .  S
C1650      H1663   1.107       .  S
C1652      C1653   1.404       .  A
C1652      C1657   1.506       .  S
C1653      C1654   1.403       .  A
C1653      H1658   1.084       .  S
C1654      C1655   1.414       .  A
C1655      C1656   1.402       .  A
C1655      C1659   1.507       .  S
C1656      H1660   1.084       .  S
C1657      H1667   1.111       .  S
C1657      H1668   1.110       .  S
C1657      H1669   1.110       .  S
C1659      H1670   1.110       .  S
C1659      H1671   1.108       .  S
C1659      H1672   1.110       .  S
C1673      C1674   1.402       .  A
C1673      C1678   1.405       .  A
C1673      H1683   1.084       .  S
C1674      C1679   1.479       .  S
C1674      C1675   1.409       .  A
C1675      C1676   1.402       .  A
C1675      C1680   1.506       .  S
C1676      C1677   1.403       .  A
C1676      H1681   1.084       .  S
C1677      C1678   1.415       .  A
C1678      C1682   1.507       .  S
C1679      C1684   1.410       .  A
C1679      C1688   1.401       .  A
C1680      H1696   1.110       .  S
C1680      H1697   1.110       .  S
C1680      H1698   1.111       .  S
C1682      H1693   1.111       .  S
C1682      H1694   1.110       .  S
C1682      H1695   1.109       .  S
C1684      C1685   1.402       .  A
C1684      C1689   1.506       .  S
C1685      C1686   1.403       .  A
C1685      H1690   1.084       .  S
C1686      C1687   1.416       .  A
C1687      C1688   1.403       .  A
C1687      C1691   1.508       .  S
C1688      H1692   1.084       .  S
C1689      H1699   1.111       .  S
C1689      H1700   1.110       .  S
C1689      H1701   1.110       .  S
C1691      H1702   1.111       .  S
C1691      H1703   1.107       .  S
C1691      H1704   1.110       .  S
C1705      C1706   1.399       .  A
C1705      C1710   1.401       .  A
C1705      H1715   1.084       .  S
C1706      C1711   1.476       .  S
C1706      C1707   1.410       .  A
C1707      C1708   1.403       .  A
C1707      C1712   1.507       .  S
C1708      C1709   1.405       .  A
C1708      H1713   1.084       .  S
C1709      C1710   1.416       .  A
C1710      C1714   1.508       .  S
C1711      C1716   1.411       .  A
C1711      C1720   1.401       .  A
C1712      H1728   1.110       .  S
C1712      H1729   1.110       .  S
C1712      H1730   1.111       .  S
C1714      H1725   1.109       .  S
C1714      H1726   1.111       .  S
C1714      H1727   1.111       .  S
C1716      C1717   1.402       .  A
C1716      C1721   1.507       .  S
C1717      C1718   1.402       .  A
C1717      H1722   1.084       .  S
C1718      C1719   1.412       .  A
C1719      C1720   1.401       .  A
C1719      C1723   1.506       .  S
C1720      H1724   1.084       .  S
C1721      H1731   1.111       .  S
C1721      H1732   1.110       .  S
C1721      H1733   1.110       .  S
C1723      H1734   1.111       .  S
C1723      H1735   1.111       .  S
C1723      H1736   1.108       .  S
C1737      C1738   1.400       .  A
C1737      C1742   1.406       .  A
C1737      H1747   1.084       .  S
C1738      C1743   1.484       .  S
C1738      C1739   1.409       .  A
C1739      C1740   1.404       .  A
C1739      C1744   1.506       .  S
C1740      C1741   1.408       .  A
C1740      H1745   1.084       .  S
C1741      C1742   1.421       .  A
C1742      C1746   1.508       .  S
C1743      C1748   1.412       .  A
C1743      C1752   1.402       .  A
C1744      H1760   1.110       .  S
C1744      H1761   1.110       .  S
C1744      H1762   1.111       .  S
C1746      H1757   1.111       .  S
C1746      H1758   1.110       .  S
C1746      H1759   1.111       .  S
C1748      C1749   1.407       .  A
C1748      C1753   1.506       .  S
C1749      C1750   1.403       .  A
C1749      H1754   1.084       .  S
C1750      C1751   1.412       .  A
C1751      C1752   1.405       .  A
C1751      C1755   1.506       .  S
C1752      H1756   1.084       .  S
C1753      H1763   1.111       .  S
C1753      H1764   1.110       .  S
C1753      H1765   1.110       .  S
C1755      H1766   1.111       .  S
C1755      H1767   1.110   1_565  S
C1755      H1768   1.111       .  S
C1769      C1770   1.400       .  A
C1769      C1774   1.403       .  A
C1769      H1779   1.085       .  S
C1770      C1775   1.482       .  S
C1770      C1771   1.410       .  A
C1771      C1772   1.405       .  A
C1771      C1776   1.506       .  S
C1772      C1773   1.405       .  A
C1772      H1777   1.084       .  S
C1773      C1774   1.418       .  A
C1774      C1778   1.508       .  S
C1775      C1780   1.411       .  A
C1775      C1784   1.401       .  A
C1776      H1792   1.110       .  S
C1776      H1793   1.110       .  S
C1776      H1794   1.111       .  S
C1778      H1789   1.111       .  S
C1778      H1790   1.110       .  S
C1778      H1791   1.106       .  S
C1780      C1781   1.404       .  A
C1780      C1785   1.506       .  S
C1781      C1782   1.403       .  A
C1781      H1786   1.084       .  S
C1782      C1783   1.415       .  A
C1783      C1784   1.404       .  A
C1783      C1787   1.507       .  S
C1784      H1788   1.084       .  S
C1785      H1795   1.111       .  S
C1785      H1796   1.110       .  S
C1785      H1797   1.110       .  S
C1787      H1798   1.110       .  S
C1787      H1799   1.108       .  S
C1787      H1800   1.110       .  S
C1801      C1802   1.400       .  A
C1801      C1806   1.405       .  A
C1801      H1811   1.084       .  S
C1802      C1807   1.480       .  S
C1802      C1803   1.408       .  A
C1803      C1804   1.400       .  A
C1803      C1808   1.506       .  S
C1804      C1805   1.407       .  A
C1804      H1809   1.084       .  S
C1805      C1806   1.421       .  A
C1806      C1810   1.508       .  S
C1807      C1812   1.411       .  A
C1807      C1816   1.402       .  A
C1808      H1824   1.110       .  S
C1808      H1825   1.110       .  S
C1808      H1826   1.111       .  S
C1810      H1821   1.110       .  S
C1810      H1822   1.111       .  S
C1810      H1823   1.110       .  S
C1812      C1813   1.403       .  A
C1812      C1817   1.506       .  S
C1813      C1814   1.403       .  A
C1813      H1818   1.084       .  S
C1814      C1815   1.413       .  A
C1815      C1816   1.404       .  A
C1815      C1819   1.507       .  S
C1816      H1820   1.084       .  S
C1817      H1827   1.111       .  S
C1817      H1828   1.110       .  S
C1817      H1829   1.110       .  S
C1819      H1830   1.111       .  S
C1819      H1831   1.111       .  S
C1819      H1832   1.109       .  S
C1833      C1834   1.397       .  A
C1833      C1838   1.405       .  A
C1833      H1843   1.084       .  S
C1834      C1839   1.475       .  S
C1834      C1835   1.406       .  A
C1835      C1836   1.401       .  A
C1835      C1840   1.508       .  S
C1836      C1837   1.409       .  A
C1836      H1841   1.083       .  S
C1837      C1838   1.424       .  A
C1838      C1842   1.508       .  S
C1839      C1844   1.410       .  A
C1839      C1848   1.400       .  A
C1840      H1856   1.110       .  S
C1840      H1857   1.110       .  S
C1840      H1858   1.110       .  S
C1842      H1853   1.111       .  S
C1842      H1854   1.110       .  S
C1842      H1855   1.110       .  S
C1844      C1845   1.401       .  A
C1844      C1849   1.506       .  S
C1845      C1846   1.401       .  A
C1845      H1850   1.084       .  S
C1846      C1847   1.414       .  A
C1847      C1848   1.400       .  A
C1847      C1851   1.508       .  S
C1848      H1852   1.085       .  S
C1849      H1859   1.111       .  S
C1849      H1860   1.110       .  S
C1849      H1861   1.110       .  S
C1851      H1862   1.111       .  S
C1851      H1863   1.108       .  S
C1851      H1864   1.110       .  S
C1865      C1866   1.402       .  A
C1865      C1870   1.406       .  A
C1865      H1875   1.084       .  S
C1866      C1871   1.484       .  S
C1866      C1867   1.410       .  A
C1867      C1868   1.404       .  A
C1867      C1872   1.506       .  S
C1868      C1869   1.405       .  A
C1868      H1873   1.084       .  S
C1869      C1870   1.417       .  A
C1870      C1874   1.508       .  S
C1871      C1876   1.411       .  A
C1871      C1880   1.402       .  A
C1872      H1888   1.110       .  S
C1872      H1889   1.111       .  S
C1872      H1890   1.111       .  S
C1874      H1885   1.109       .  S
C1874      H1886   1.111       .  S
C1874      H1887   1.111       .  S
C1876      C1877   1.404       .  A
C1876      C1881   1.506       .  S
C1877      C1878   1.404       .  A
C1877      H1882   1.084       .  S
C1878      C1879   1.418       .  A
C1879      C1880   1.405       .  A
C1879      C1883   1.508       .  S
C1880      H1884   1.084       .  S
C1881      H1891   1.111       .  S
C1881      H1892   1.110       .  S
C1881      H1893   1.111       .  S
C1883      H1894   1.110       .  S
C1883      H1895   1.107       .  S
C1883      H1896   1.111       .  S
C1897      C1898   1.402       .  A
C1897      C1902   1.412       .  A
C1897      H1907   1.084       .  S
C1898      C1903   1.490       .  S
C1898      C1899   1.408       .  A
C1899      C1900   1.404       .  A
C1899      C1904   1.507       .  S
C1900      C1901   1.410       .  A
C1900      H1905   1.083       .  S
C1901      C1902   1.425       .  A
C1902      C1906   1.508       .  S
C1903      C1908   1.412       .  A
C1903      C1912   1.402       .  A
C1904      H1920   1.110       .  S
C1904      H1921   1.110       .  S
C1904      H1922   1.111       .  S
C1906      H1917   1.111       .  S
C1906      H1918   1.110       .  S
C1906      H1919   1.110       .  S
C1908      C1909   1.408       .  A
C1908      C1913   1.506       .  S
C1909      C1910   1.405       .  A
C1909      H1914   1.084       .  S
C1910      C1911   1.418       .  A
C1911      C1912   1.406       .  A
C1911      C1915   1.508       .  S
C1912      H1916   1.084       .  S
C1913      H1923   1.111       .  S
C1913      H1924   1.110       .  S
C1913      H1925   1.110       .  S
C1915      H1926   1.110   1_565  S
C1915      H1927   1.108   1_565  S
C1915      H1928   1.111       .  S
