geometry optimzed in LAMMPS
_audit_creation_date              2020-11-30 
_audit_creation_method            'lammps2cif' 
_symmetry_space_group_name_H-M    'P1' 
_symmetry_Int_Tables_number       1 
_symmetry_cell_setting            triclinic 
loop_ 
_symmetry_equiv_pos_as_xyz 
  x,y,z 
_cell_length_a                    79.91057633 
_cell_length_b                    79.81555362322158 
_cell_length_c                    43.15294134998238 
_cell_angle_alpha                 89.55754895363077 
_cell_angle_beta                  90.37483665259721 
_cell_angle_gamma                 122.17946012600443 
loop_ 
_atom_site_label 
_atom_site_type_symbol 
_atom_site_fract_x 
_atom_site_fract_y 
_atom_site_fract_z 
_atom_site_charge 
In1        In  0.37994743  0.48676101  0.12411083     1.36900
C2          C  0.41245552  0.52071079  0.14053774     0.77300
O3          O  0.37850150  0.47184044  0.16921101    -0.61100
O4          O  0.39120874  0.46642846  0.13067754    -0.52000
C5          C  0.34496117  0.48218815  0.13535850     0.70000
O6          O  0.36055366  0.49881363  0.13097206    -0.46900
C7          C  0.37679818  0.48237010  0.06253611     0.74700
O8          O  0.39607705  0.51395752  0.15385727    -0.58700
O9          O  0.37240560  0.46824726  0.08093200    -0.48800
O10         O  0.41209266  0.51017415  0.11862327    -0.55200
C11         C  0.38690748  0.46340043  0.15906565     0.84900
O12         O  0.34725072  0.46774227  0.13410540    -0.57100
O13         O  0.38286543  0.49868186  0.07571789    -0.60400
In14       In  0.48262713  0.38244985  0.36591278     1.36900
C15         C  0.51756846  0.41519290  0.35471509     0.77300
O16         O  0.46907681  0.38327457  0.32066975    -0.61100
O17         O  0.46231042  0.39379534  0.36061063    -0.52000
C18         C  0.47776349  0.34788083  0.35077126     0.70000
O19         O  0.49446591  0.36318927  0.35588878    -0.46900
C20         C  0.47732650  0.37610050  0.42673099     0.74700
O21         O  0.51119156  0.39936005  0.33985096    -0.58700
O22         O  0.46322155  0.37157760  0.40832966    -0.48800
O23         O  0.50584458  0.41435967  0.37499831    -0.55200
C24         C  0.45998000  0.39075094  0.33182158     0.84900
O25         O  0.46347569  0.35029819  0.35323014    -0.57100
O26         O  0.49399179  0.38403026  0.41396055    -0.60400
In27       In  0.24505188  0.26975075  0.44541552     1.36900
C28         C  0.21120163  0.26820702  0.45255002     0.77300
O29         O  0.25476915  0.28028241  0.49413558    -0.61100
O30         O  0.26893870  0.30099158  0.45766817    -0.52000
C31         C  0.24888255  0.23934857  0.45964673     0.70000
O32         O  0.23260052  0.23830079  0.46039806    -0.46900
C33         C  0.25051240  0.27172288  0.38429332     0.74700
O34         O  0.21357902  0.25442587  0.46069238    -0.58700
O35         O  0.26376842  0.28361533  0.40277517    -0.48800
O36         O  0.22629263  0.28299920  0.44071813    -0.55200
C37         C  0.26748786  0.29784525  0.48648869     0.84900
O38         O  0.26330737  0.25602836  0.45139144    -0.57100
O39         O  0.23451757  0.25910987  0.39713472    -0.60400
In40       In  0.33722151  0.46640634  0.71253679     1.36900
C41         C  0.33044730  0.43682915  0.67543479     0.77300
O42         O  0.30475620  0.45468810  0.71879102    -0.61100
O43         O  0.32115110  0.47876943  0.68797873    -0.52000
C44         C  0.34270577  0.46551881  0.77366643     0.70000
O45         O  0.34569467  0.45547615  0.75465981    -0.46900
C46         C  0.37258624  0.49812857  0.69919350     0.74700
O47         O  0.32617808  0.43433310  0.70388013    -0.58700
O48         O  0.35758138  0.49905239  0.70424697    -0.48800
O49         O  0.33808637  0.45442002  0.66610643    -0.55200
C50         C  0.30465356  0.46698093  0.70035753     0.84900
O51         O  0.33646456  0.47556150  0.76142230    -0.57100
O52         O  0.36946901  0.48092294  0.70099470    -0.60400
In53       In  0.26259699  0.24977819  0.03499045     1.36900
C54         C  0.29230000  0.27117932  0.99610498     0.77300
O55         O  0.27451277  0.22989896  0.03917842    -0.61100
O56         O  0.24655138  0.21857305  0.01769824    -0.52000
C57         C  0.26459347  0.25615152  0.09599621     0.70000
O58         O  0.27405782  0.26993039  0.07662684    -0.46900
C59         C  0.23280733  0.25409329  0.01918147     0.74700
O60         O  0.29430045  0.27326867  0.02513584    -0.58700
O61         O  0.23040338  0.23789270  0.02801408    -0.48800
O62         O  0.27504202  0.25841876  0.98718727    -0.55200
C63         C  0.25968081  0.21533831  0.02640551     0.84900
O64         O  0.25446061  0.23924362  0.08411651    -0.57100
O65         O  0.25058562  0.26825441  0.01843489    -0.60400
In66       In  0.46558794  0.34254030  0.77734525     1.36900
C67         C  0.43568169  0.33519071  0.81390468     0.77300
O68         O  0.45424416  0.31038767  0.77008513    -0.61100
O69         O  0.47683507  0.32610672  0.80353391    -0.52000
C70         C  0.46485142  0.34689904  0.71624192     0.70000
O71         O  0.45475696  0.35028048  0.73455030    -0.46900
C72         C  0.49701765  0.37801832  0.79039183     0.74700
O73         O  0.43370043  0.33239384  0.78502674    -0.58700
O74         O  0.49814935  0.36309489  0.78562535    -0.48800
O75         O  0.45296359  0.34188060  0.82384034    -0.55200
C76         C  0.46550481  0.30986009  0.79014644     0.84900
O77         O  0.47502404  0.34106493  0.72927142    -0.57100
O78         O  0.47980862  0.37477814  0.78813112    -0.60400
In79       In  0.66920032  0.13486403  0.38188310     1.36900
C80         C  0.66255804  0.10573158  0.34404321     0.77300
O81         O  0.63675817  0.12398197  0.38360549    -0.61100
O82         O  0.65521680  0.14810527  0.35396347    -0.52000
C83         C  0.67100727  0.13078519  0.44300075     0.70000
O84         O  0.67456819  0.12133649  0.42365577    -0.46900
C85         C  0.70544647  0.16673837  0.37385264     0.74700
O86         O  0.65667771  0.10274487  0.37174145    -0.58700
O87         O  0.69044627  0.16778823  0.37828120    -0.48800
O88         O  0.67228154  0.12369695  0.33602552    -0.55200
C89         C  0.63797100  0.13629292  0.36384071     0.84900
O90         O  0.66607742  0.14200045  0.43102670    -0.57100
O91         O  0.70188857  0.14932688  0.37374611    -0.60400
In92       In  0.57265495  0.93339898  0.11992674     1.36900
C93         C  0.59516014  0.96371452  0.15753402     0.77300
O94         O  0.55317199  0.94543162  0.11123559    -0.61100
O95         O  0.54249503  0.92028873  0.14044345    -0.52000
C96         C  0.57801287  0.93242972  0.05912512     0.70000
O97         O  0.59195354  0.94367051  0.07724328    -0.46900
C98         C  0.57567126  0.90303918  0.13704386     0.74700
O99         O  0.59472073  0.96573337  0.12858039    -0.58700
O100        O  0.55936218  0.90192125  0.13507066    -0.48800
O101        O  0.58459325  0.94610983  0.16699491    -0.55200
C102        C  0.53932023  0.93273355  0.12818286     0.84900
O103        O  0.56147665  0.92200171  0.07216000    -0.57100
O104        O  0.59052973  0.91979251  0.13020869    -0.60400
In105      In  0.59417114  0.91397312  0.70860168     1.36900
C106        C  0.62400766  0.93474889  0.66906738     0.77300
O107        O  0.60506201  0.89336791  0.71630316    -0.61100
O108        O  0.57767283  0.88233794  0.69320513    -0.52000
C109        C  0.59332846  0.91819860  0.76965884     0.70000
O110        O  0.60677792  0.93138650  0.75266666    -0.46900
C111        C  0.56661101  0.92151608  0.69217230     0.74700
O112        O  0.62635530  0.93639335  0.69806636    -0.58700
O113        O  0.56468438  0.90495145  0.68814909    -0.48800
O114        O  0.60639473  0.92308403  0.66059033    -0.55200
C115        C  0.59039318  0.87885112  0.70316654     0.84900
O116        O  0.58063746  0.90286530  0.75537950    -0.57100
O117        O  0.58283446  0.93437449  0.70430461    -0.60400
In118      In  0.79878606  0.00738186  0.44971209     1.36900
C119        C  0.76746218  0.99813621  0.48429826     0.77300
O120        O  0.79336385  0.97707965  0.44129139    -0.61100
O121        O  0.80869021  0.99213203  0.48208889    -0.52000
C122        C  0.79709005  0.01251857  0.38865464     0.70000
O123        O  0.78542300  0.01304797  0.40760253    -0.46900
C124        C  0.83024289  0.04283631  0.46262728     0.74700
O125        O  0.76591035  0.99075209  0.45789820    -0.58700
O126        O  0.83120568  0.02771804  0.45894291    -0.48800
O127        O  0.78497260  0.01053476  0.49249078    -0.55200
C128        C  0.80171383  0.97672839  0.46596363     0.84900
O129        O  0.80931550  0.00908752  0.40098857    -0.57100
O130        O  0.81312449  0.03978677  0.45954076    -0.60400
In131      In  0.71047551  0.14961300  0.79098757     1.36900
C132        C  0.74317559  0.18434121  0.80360593     0.77300
O133        O  0.70880360  0.13341517  0.83489601    -0.61100
O134        O  0.72455697  0.13169879  0.79706941    -0.52000
C135        C  0.67669019  0.14721776  0.80432652     0.70000
O136        O  0.69227949  0.16317693  0.79682916    -0.46900
C137        C  0.70381524  0.14247175  0.73057440     0.74700
O138        O  0.72787525  0.17680555  0.82020028    -0.58700
O139        O  0.69879577  0.12879645  0.75019865    -0.48800
O140        O  0.74174437  0.17401368  0.78060299    -0.55200
C141        C  0.71914087  0.12702254  0.82484064     0.84900
O142        O  0.67843491  0.13241661  0.80533002    -0.57100
O143        O  0.71238635  0.15957027  0.74197076    -0.60400
In144      In  0.81621035  0.04913063  0.03773761     1.36900
C145        C  0.85051940  0.08318329  0.02911193     0.77300
O146        O  0.80614857  0.05263728  0.99065613    -0.61100
O147        O  0.79370099  0.05751602  0.03011601    -0.52000
C148        C  0.81100924  0.01462203  0.02006983     0.70000
O149        O  0.82778053  0.02977772  0.02544108    -0.46900
C150        C  0.81007841  0.04287934  0.09885116     0.74700
O151        O  0.84697631  0.06692244  0.01850733    -0.58700
O152        O  0.79651844  0.03925477  0.07986833    -0.48800
O153        O  0.83652628  0.08196462  0.04444799    -0.55200
C154        C  0.79451137  0.05739064  0.00095113     0.84900
O155        O  0.79685477  0.01712973  0.02371816    -0.57100
O156        O  0.82677154  0.04979040  0.08655020    -0.60400
In157      In  0.92433455  0.38845913  0.88041551     1.36900
C158        C  0.95483213  0.39749814  0.84350440     0.77300
O159        O  0.91067320  0.35582166  0.87230104    -0.61100
O160        O  0.89256506  0.36766943  0.86729117    -0.52000
C161        C  0.92509804  0.38353207  0.94154276     0.70000
O162        O  0.93615069  0.38165473  0.92306963    -0.46900
C163        C  0.92176664  0.41998099  0.86949462     0.74700
O164        O  0.95698257  0.40166449  0.87194551    -0.58700
O165        O  0.91115967  0.40368272  0.85587981    -0.48800
O166        O  0.93718097  0.38870523  0.83425506    -0.55200
C167        C  0.89376264  0.35257867  0.86599498     0.84900
O168        O  0.91367581  0.38785568  0.92865436    -0.57100
O169        O  0.93379730  0.42018607  0.88879452    -0.60400
In170      In  0.12658637  0.48295365  0.61667932     1.36900
C171        C  0.12977349  0.51751834  0.62531294     0.77300
O172        O  0.13660221  0.49381745  0.56803296    -0.61100
O173        O  0.11504460  0.46343972  0.57438430    -0.52000
C174        C  0.15653077  0.47895979  0.63344581     0.70000
O175        O  0.15744819  0.49519997  0.63419428    -0.46900
C176        C  0.09641792  0.46121426  0.65529754     0.74700
O177        O  0.14316967  0.51441109  0.63270531    -0.58700
O178        O  0.09410644  0.46196915  0.62651672    -0.48800
O179        O  0.11475469  0.50294984  0.61296978    -0.55200
C180        C  0.12582158  0.47714259  0.55559028     0.84900
O181        O  0.14015411  0.46459091  0.62404856    -0.57100
O182        O  0.11419454  0.47101474  0.66405108    -0.60400
In183      In  0.14893396  0.46585504  0.20545509     1.36900
C184        C  0.18321707  0.46896475  0.19409210     0.77300
O185        O  0.15963751  0.47644023  0.25391672    -0.61100
O186        O  0.13027423  0.45216798  0.24834452    -0.52000
C187        C  0.14260387  0.49452936  0.19102390     0.70000
O188        O  0.15940502  0.49767863  0.19772359    -0.46900
C189        C  0.12763681  0.43631756  0.16629446     0.74700
O190        O  0.17899271  0.48105977  0.18361577    -0.58700
O191        O  0.12595348  0.43405514  0.19534278    -0.48800
O192        O  0.16997313  0.45541872  0.21086502    -0.55200
C193        C  0.14359421  0.46398659  0.26684798     0.84900
O194        O  0.12882975  0.47656159  0.19200405    -0.57100
O195        O  0.13985549  0.45377854  0.15747310    -0.60400
In196      In  0.05102813  0.26373862  0.94338882     1.36900
C197        C  0.05832935  0.29284699  0.98184740     0.77300
O198        O  0.01824593  0.24957870  0.94867040    -0.61100
O199        O  0.03117258  0.23379547  0.96462924    -0.52000
C200        C  0.04608493  0.26318694  0.88189707     0.70000
O201        O  0.04523401  0.27527790  0.89940156    -0.46900
C202        C  0.08394948  0.26370657  0.95272180     0.74700
O203        O  0.06015860  0.29516931  0.95286313    -0.58700
O204        O  0.06694309  0.24912924  0.95883210    -0.48800
O205        O  0.05240844  0.27554783  0.99099117    -0.55200
C206        C  0.01567903  0.23415128  0.96156519     0.84900
O207        O  0.04970096  0.25152385  0.89585556    -0.57100
O208        O  0.08416144  0.27834992  0.94099642    -0.60400
In209      In  0.01420475  0.24671936  0.52931479     1.36900
C210        C  0.98151317  0.21178204  0.51758677     0.77300
O211        O  0.01541413  0.23569800  0.57677894    -0.61100
O212        O  0.01901774  0.26389668  0.57345721    -0.52000
C213        C  0.04919927  0.25256349  0.51417244     0.70000
O214        O  0.03369686  0.23568434  0.51674932    -0.46900
C215        C  0.00700556  0.26919639  0.49243402     0.74700
O216        O  0.99780156  0.21763608  0.50464068    -0.58700
O217        O  0.00422346  0.26800910  0.52129318    -0.48800
O218        O  0.98187175  0.22393714  0.53646810    -0.55200
C219        C  0.01816596  0.25071629  0.59092055     0.84900
O220        O  0.04695575  0.26673393  0.51997552    -0.57100
O221        O  0.01392993  0.25928076  0.48266846    -0.60400
In222      In  0.90776405  0.34930797  0.29225347     1.36900
C223        C  0.87330814  0.31754212  0.30919781     0.77300
O224        O  0.89647774  0.34859580  0.24415512    -0.61100
O225        O  0.92661221  0.35803007  0.24943380    -0.52000
C226        C  0.91279500  0.38404044  0.30641816     0.70000
O227        O  0.89610763  0.36879679  0.30091751    -0.46900
C228        C  0.93099638  0.34057774  0.32356089     0.74700
O229        O  0.88117267  0.33380981  0.32325979    -0.58700
O230        O  0.92547116  0.33505958  0.29608989    -0.48800
O231        O  0.88308375  0.31758015  0.28635504    -0.55200
C232        C  0.91284570  0.35478201  0.23114357     0.84900
O233        O  0.92706394  0.38151217  0.30475645    -0.57100
O234        O  0.92501944  0.35102518  0.33474406    -0.60400
In235      In  0.46001835  0.15147704  0.28044913     1.36900
C236        C  0.46302587  0.18579661  0.29057831     0.77300
O237        O  0.46574625  0.16020493  0.23037891    -0.61100
O238        O  0.44752244  0.12966279  0.24110652    -0.52000
C239        C  0.49109675  0.14831547  0.29143583     0.70000
O240        O  0.49278016  0.16441350  0.28374614    -0.46900
C241        C  0.43031713  0.13036796  0.31983242     0.74700
O242        O  0.47443808  0.18129739  0.30309551    -0.58700
O243        O  0.42777180  0.13050887  0.29098489    -0.48800
O244        O  0.45037301  0.17286171  0.27246584    -0.55200
C245        C  0.45565771  0.14275516  0.22029832     0.84900
O246        O  0.47348766  0.13389623  0.29372050    -0.57100
O247        O  0.44813301  0.14062814  0.32835646    -0.60400
In248      In  0.25997255  0.05855352  0.54630409     1.36900
C249        C  0.28936378  0.06519960  0.50864848     0.77300
O250        O  0.24705555  0.02602680  0.53943873    -0.61100
O251        O  0.22867669  0.03741994  0.53178432    -0.52000
C252        C  0.25964732  0.05448188  0.60802919     0.70000
O253        O  0.27251308  0.05472907  0.59095792    -0.46900
C254        C  0.25897026  0.09075778  0.53290788     0.74700
O255        O  0.29201140  0.06968550  0.53699077    -0.58700
O256        O  0.24593815  0.07366290  0.52395343    -0.48800
O257        O  0.27166452  0.05709131  0.49980855    -0.55200
C258        C  0.23024516  0.02252188  0.53159083     0.84900
O259        O  0.24713599  0.05656308  0.59353385    -0.57100
O260        O  0.27248474  0.09136974  0.54906599    -0.60400
In261      In  0.48120905  0.13246489  0.87428585     1.36900
C262        C  0.51615722  0.13641705  0.86513496     0.77300
O263        O  0.48916253  0.14051171  0.92426588    -0.61100
O264        O  0.45928077  0.11931903  0.91347120    -0.52000
C265        C  0.47623761  0.16182248  0.85812715     0.70000
O266        O  0.49209709  0.16474959  0.86967934    -0.46900
C267        C  0.46026791  0.10181296  0.83696822     0.74700
O268        O  0.51176326  0.14821652  0.85390601    -0.58700
O269        O  0.45980333  0.10004238  0.86607956    -0.48800
O270        O  0.50274091  0.12274762  0.88148280    -0.55200
C271        C  0.47185741  0.12910878  0.93424197     0.84900
O272        O  0.46292122  0.14384161  0.85484613    -0.57100
O273        O  0.47130643  0.11929987  0.82713657    -0.60400
In274      In  0.38677694  0.93264471  0.61047285     1.36900
C275        C  0.39279439  0.96079014  0.64968600     0.77300
O276        O  0.35400267  0.91707156  0.61662625    -0.61100
O277        O  0.36733602  0.90018960  0.62088523    -0.52000
C278        C  0.38253040  0.93524163  0.54976272     0.70000
O279        O  0.37980089  0.94523874  0.56926896    -0.46900
C280        C  0.42024259  0.93415212  0.62302150     0.74700
O281        O  0.39807527  0.96428708  0.62172575    -0.58700
O282        O  0.40406981  0.92215090  0.63609594    -0.48800
O283        O  0.38382524  0.94278427  0.65722154    -0.55200
C284        C  0.35167275  0.90040487  0.62197750     0.84900
O285        O  0.38764672  0.92407275  0.56140139    -0.57100
O286        O  0.41915988  0.94504359  0.60284839    -0.60400
In287      In  0.34219363  0.91265456  0.20144665     1.36900
C288        C  0.31005774  0.87750187  0.18828547     0.77300
O289        O  0.33626806  0.90273335  0.25129986    -0.61100
O290        O  0.35636584  0.93315682  0.24213288    -0.52000
C291        C  0.37688215  0.91767187  0.18591447     0.70000
O292        O  0.36326934  0.90209745  0.19871025    -0.46900
C293        C  0.33307950  0.93481041  0.16748970     0.74700
O294        O  0.32701726  0.88294268  0.17821115    -0.58700
O295        O  0.33308033  0.93487624  0.19672129    -0.48800
O296        O  0.30963870  0.88995695  0.20554058    -0.55200
C297        C  0.34782538  0.91971797  0.26230646     0.84900
O298        O  0.37264562  0.93056780  0.18091186    -0.57100
O299        O  0.33813943  0.92374219  0.15582535    -0.60400
In300      In  0.23795446  0.01661259  0.95869991     1.36900
C301        C  0.20327022  0.98347429  0.96924556     0.77300
O302        O  0.22687734  0.01574631  0.91044627    -0.61100
O303        O  0.25709847  0.02560194  0.91596880    -0.52000
C304        C  0.24265254  0.05129437  0.97275530     0.70000
O305        O  0.22604179  0.03589432  0.96759628    -0.46900
C306        C  0.25974185  0.00868237  0.99600804     0.74700
O307        O  0.20865746  0.99962677  0.98242877    -0.58700
O308        O  0.25924677  0.00664160  0.96697725    -0.48800
O309        O  0.21578609  0.98422071  0.95067565    -0.55200
C310        C  0.24332340  0.02224758  0.89755645     0.84900
O311        O  0.25703002  0.04894673  0.97100295    -0.57100
O312        O  0.24953990  0.01531150  0.00572821    -0.60400
In313      In  0.13006414  0.67406987  0.10544248     1.36900
C314        C  0.10130600  0.66703856  0.14426924     0.77300
O315        O  0.11786258  0.64142965  0.10252924    -0.61100
O316        O  0.14381477  0.65902067  0.12916107    -0.52000
C317        C  0.12700676  0.67677725  0.04416543     0.70000
O318        O  0.11667843  0.67929476  0.06324428    -0.46900
C319        C  0.16075842  0.71053340  0.11623075     0.74700
O320        O  0.09847191  0.66371316  0.11559333    -0.58700
O321        O  0.16253365  0.69592736  0.11220556    -0.48800
O322        O  0.11892288  0.67417429  0.15293472    -0.55200
C323        C  0.13096153  0.64196090  0.11970524     0.84900
O324        O  0.13864170  0.67252340  0.05647141    -0.57100
O325        O  0.14323022  0.70647823  0.11450212    -0.60400
In326      In  0.93242569  0.58153827  0.37332546     1.36900
C327        C  0.92922674  0.54712240  0.36401904     0.77300
O328        O  0.94387920  0.59146391  0.32518004    -0.61100
O329        O  0.96434923  0.60308946  0.36251468    -0.52000
C330        C  0.90369305  0.58788855  0.35994426     0.70000
O331        O  0.90076027  0.57082670  0.36336027    -0.46900
C332        C  0.93454132  0.58684445  0.43430329     0.74700
O333        O  0.91694322  0.55105300  0.35343159    -0.58700
O334        O  0.94566469  0.60050931  0.41565204    -0.48800
O335        O  0.94316669  0.56086004  0.37950229    -0.55200
C336        C  0.96163711  0.60243878  0.33360946     0.84900
O337        O  0.92142809  0.60180930  0.36352066    -0.57100
O338        O  0.92256731  0.57053234  0.42166088    -0.60400
In339      In  0.04767958  0.82025011  0.45566981     1.36900
C340        C  0.08083573  0.85473535  0.46761327     0.77300
O341        O  0.04633837  0.80450502  0.49983425    -0.61100
O342        O  0.06063798  0.80135931  0.46121765    -0.52000
C343        C  0.01335910  0.81602904  0.47088741     0.70000
O344        O  0.02905051  0.83267154  0.46700993    -0.46900
C345        C  0.04084971  0.81426393  0.39502895     0.74700
O346        O  0.06561640  0.84764187  0.48429758    -0.58700
O347        O  0.03758385  0.80059543  0.41368004    -0.48800
O348        O  0.07904536  0.84416214  0.44474630    -0.55200
C349        C  0.05561039  0.79708697  0.48919737     0.84900
O350        O  0.01525137  0.80148059  0.46700077    -0.57100
O351        O  0.04788426  0.83095879  0.40744494    -0.60400
In352      In  0.15022157  0.71528165  0.69606965     1.36900
C353        C  0.18524354  0.74754295  0.68364909     0.77300
O354        O  0.13706447  0.71552361  0.65009487    -0.61100
O355        O  0.13071345  0.72742197  0.68871864    -0.52000
C356        C  0.14655012  0.68093392  0.68306847     0.70000
O357        O  0.16264076  0.69594372  0.69173488    -0.46900
C358        C  0.14208962  0.70910755  0.75637908     0.74700
O359        O  0.17926000  0.73106313  0.67111347    -0.58700
O360        O  0.12879488  0.70307482  0.73593607    -0.48800
O361        O  0.17328963  0.74745731  0.70268581    -0.55200
C362        C  0.12843163  0.72377166  0.66009913     0.84900
O363        O  0.13234850  0.68355009  0.68104538    -0.57100
O364        O  0.15944792  0.71851400  0.74588843    -0.60400
In365      In  0.00101971  0.79967615  0.04574731     1.36900
C366        C  0.99290617  0.77044810  0.00720166     0.77300
O367        O  0.96851296  0.78639673  0.05322623    -0.61100
O368        O  0.98390914  0.81189213  0.02458380    -0.52000
C369        C  0.00628630  0.79867447  0.10675352     0.70000
O370        O  0.00956319  0.78880229  0.08779887    -0.46900
C371        C  0.03645686  0.83080427  0.03099953     0.74700
O372        O  0.99118979  0.76811875  0.03622029    -0.58700
O373        O  0.02173990  0.83213053  0.03661324    -0.48800
O374        O  0.99896943  0.78780096  0.99805227    -0.55200
C375        C  0.96763196  0.79891154  0.03644093     0.84900
O376        O  0.00023670  0.80886036  0.09442461    -0.57100
O377        O  0.03300852  0.81347490  0.03289601    -0.60400
In378      In  0.90724573  0.59855824  0.78166906     1.36900
C379        C  0.87365612  0.59766087  0.78704891     0.77300
O380        O  0.91494791  0.61041721  0.83012036    -0.61100
O381        O  0.93069600  0.63007104  0.79305842    -0.52000
C382        C  0.91025954  0.56803706  0.79900457     0.70000
O383        O  0.89397338  0.56643410  0.79348566    -0.46900
C384        C  0.91485146  0.60019590  0.72115445     0.74700
O385        O  0.87618542  0.58453044  0.79822113    -0.58700
O386        O  0.92790008  0.61103376  0.74075114    -0.48800
O387        O  0.88834150  0.61126459  0.77250223    -0.55200
C388        C  0.92791596  0.62777859  0.82192415     0.84900
O389        O  0.92511215  0.58531933  0.79544378    -0.57100
O390        O  0.89797284  0.58872427  0.73256121    -0.60400
In391      In  0.68001958  0.57936763  0.87384263     1.36900
C392        C  0.64754311  0.54459352  0.86002774     0.77300
O393        O  0.68224417  0.56948643  0.92181249    -0.61100
O394        O  0.69053322  0.59928132  0.91576761    -0.52000
C395        C  0.71379319  0.58400206  0.85472864     0.70000
O396        O  0.69856030  0.56725300  0.86019831    -0.46900
C397        C  0.67064860  0.60203548  0.84202145     0.74700
O398        O  0.66286583  0.55270264  0.84352525    -0.58700
O399        O  0.66485029  0.59638168  0.86941219    -0.48800
O400        O  0.64890536  0.55417135  0.88403820    -0.55200
C401        C  0.68878494  0.58611096  0.93421217     0.84900
O402        O  0.71177432  0.59840402  0.85946704    -0.57100
O403        O  0.68154928  0.59647102  0.83145605    -0.60400
In404      In  0.57584829  0.68344729  0.63282347     1.36900
C405        C  0.54144479  0.65060580  0.64649719     0.77300
O406        O  0.56449674  0.67866386  0.58395081    -0.61100
O407        O  0.59546922  0.69589193  0.59050275    -0.52000
C408        C  0.57845454  0.71726451  0.64672498     0.70000
O409        O  0.56246575  0.70171864  0.63931845    -0.46900
C410        C  0.59867201  0.67622359  0.66875171     0.74700
O411        O  0.54664702  0.66734421  0.65725840    -0.58700
O412        O  0.59708217  0.67321801  0.63991624    -0.48800
O413        O  0.55402738  0.65062325  0.62894610    -0.55200
C414        C  0.58125153  0.68888614  0.57155398     0.84900
O415        O  0.59326367  0.71554219  0.64697644    -0.57100
O416        O  0.58918932  0.68356970  0.67877651    -0.60400
In417      In  0.59006139  0.72487832  0.22111942     1.36900
C418        C  0.61881679  0.73245246  0.18179233     0.77300
O419        O  0.57744959  0.69230790  0.21624021    -0.61100
O420        O  0.55964972  0.70353333  0.20287399    -0.52000
C421        C  0.59048548  0.71970677  0.28214491     0.70000
O422        O  0.60371155  0.72130283  0.26436248    -0.46900
C423        C  0.58810323  0.75691413  0.21305092     0.74700
O424        O  0.62162789  0.73514292  0.21057366    -0.58700
O425        O  0.57472520  0.73985914  0.20452409    -0.48800
O426        O  0.60133001  0.72602159  0.17322454    -0.55200
C427        C  0.56107202  0.68861042  0.20569273     0.84900
O428        O  0.57718500  0.72102411  0.26868663    -0.57100
O429        O  0.60259462  0.75764643  0.22628367    -0.60400
In430      In  0.79076864  0.81614450  0.95853972     1.36900
C431        C  0.79365008  0.85079682  0.96444540     0.77300
O432        O  0.80267172  0.82547895  0.91027644    -0.61100
O433        O  0.77807786  0.79634602  0.91688531    -0.52000
C434        C  0.81902391  0.81015777  0.97733534     0.70000
O435        O  0.82190524  0.82713964  0.97308223    -0.46900
C436        C  0.76022536  0.79548908  0.99631680     0.74700
O437        O  0.80585725  0.84722172  0.97644066    -0.58700
O438        O  0.75845492  0.79469635  0.96722629    -0.48800
O439        O  0.78006036  0.83666420  0.94907378    -0.55200
C440        C  0.79027791  0.80913195  0.89808248     0.84900
O441        O  0.80157147  0.79611995  0.97191179    -0.57100
O442        O  0.77769450  0.80657809  0.00596666    -0.60400
In443      In  0.72209571  0.59784553  0.28497164     1.36900
C444        C  0.72964284  0.62711858  0.32350626     0.77300
O445        O  0.68929908  0.58347470  0.29171486    -0.61100
O446        O  0.70174224  0.56600932  0.29842165    -0.52000
C447        C  0.71884992  0.59916444  0.22343994     0.70000
O448        O  0.71562087  0.60940711  0.24163234    -0.46900
C449        C  0.75504665  0.59800878  0.29542824     0.74700
O450        O  0.73123125  0.62930924  0.29449877    -0.58700
O451        O  0.73830303  0.58426033  0.30467545    -0.48800
O452        O  0.72374109  0.60981254  0.33270057    -0.55200
C453        C  0.68637534  0.56672432  0.29847038     0.84900
O454        O  0.72370512  0.58827412  0.23678958    -0.57100
O455        O  0.75485668  0.61158349  0.28058507    -0.60400
In456      In  0.81825351  0.79932087  0.55088987     1.36900
C457        C  0.85285535  0.80283538  0.54023010     0.77300
O458        O  0.82627223  0.80789699  0.60053880    -0.61100
O459        O  0.79685415  0.78476788  0.59084738    -0.52000
C460        C  0.81467918  0.83001420  0.53825438     0.70000
O461        O  0.83039478  0.83190548  0.54846047    -0.46900
C462        C  0.79762583  0.76966045  0.51127775     0.74700
O463        O  0.84734737  0.81302150  0.52631997    -0.58700
O464        O  0.79702390  0.76701743  0.54024314    -0.48800
O465        O  0.84082301  0.79112227  0.56031574    -0.55200
C466        C  0.80934948  0.79563410  0.61114838     0.84900
O467        O  0.80063406  0.81231294  0.53473237    -0.57100
O468        O  0.80815270  0.78750993  0.50289283    -0.60400
C469        C  0.73478523  0.64355761  0.34496068    -0.03600
C470        C  0.74075915  0.66246931  0.33343824    -0.09400
C471        C  0.74684160  0.67831297  0.35373927    -0.17000
C472        C  0.74704390  0.67545300  0.38576912     0.25100
C473        C  0.74073704  0.65657259  0.39743045    -0.18700
C474        C  0.73460935  0.64070971  0.37718075    -0.07600
C475        C  0.75441191  0.69197665  0.40662260    -0.14000
C476        C  0.76114536  0.70567891  0.42445020    -0.13800
C477        C  0.76968490  0.72183929  0.44616987     0.25000
C478        C  0.76634115  0.71801666  0.47799322    -0.19200
C479        C  0.77515060  0.73360668  0.49922523    -0.07600
C480        C  0.78739869  0.75324199  0.48886199    -0.03700
C481        C  0.79051849  0.75698811  0.45683452    -0.09000
C482        C  0.78174685  0.74137521  0.43564716    -0.16700
H483        H  0.74102060  0.66507774  0.30872927     0.11500
H484        H  0.75168720  0.69284876  0.34442961     0.10800
H485        H  0.74085041  0.65417474  0.42215978     0.10700
H486        H  0.73011468  0.62631546  0.38669712     0.11200
H487        H  0.75708449  0.70296021  0.48642439     0.11300
H488        H  0.77254705  0.73028770  0.52374392     0.11200
H489        H  0.79998984  0.77195587  0.44819215     0.11400
H490        H  0.78452422  0.74452653  0.41109965     0.10200
C491        C  0.80474096  0.79449106  0.64457444    -0.03600
C492        C  0.78579556  0.78059649  0.65606333    -0.09400
C493        C  0.78168947  0.78000520  0.68775880    -0.17000
C494        C  0.79646366  0.79329458  0.70821832     0.25100
C495        C  0.81529576  0.80714795  0.69686767    -0.18700
C496        C  0.81941665  0.80774795  0.66533738    -0.07600
C497        C  0.79253317  0.79311576  0.74082381    -0.14000
C498        C  0.79083645  0.79457594  0.76828611    -0.13800
C499        C  0.79041534  0.79807781  0.80091311     0.25000
C500        C  0.80381545  0.81684060  0.81304771    -0.19200
C501        C  0.80370589  0.82044824  0.84466530    -0.07600
C502        C  0.79016279  0.80530893  0.86460441    -0.03700
C503        C  0.77667837  0.78650618  0.85227588    -0.09000
C504        C  0.77683318  0.78291024  0.82059517    -0.16700
H505        H  0.77418926  0.77026678  0.64057393     0.11500
H506        H  0.76702631  0.76925751  0.69626122     0.10800
H507        H  0.82682267  0.81755799  0.71241787     0.10700
H508        H  0.83410708  0.81867901  0.65718276     0.11200
H509        H  0.81439797  0.82869189  0.79805388     0.11300
H510        H  0.81423979  0.83507271  0.85351372     0.11200
H511        H  0.76609565  0.77457601  0.86713238     0.11400
H512        H  0.76640682  0.76832482  0.81148623     0.10200
C513        C  0.63464223  0.73649663  0.15988872    -0.03600
C514        C  0.65394098  0.74367469  0.17061052    -0.09400
C515        C  0.66900504  0.74792897  0.14970822    -0.17000
C516        C  0.66493262  0.74503374  0.11793566     0.25100
C517        C  0.64569734  0.73762649  0.10710992    -0.18700
C518        C  0.63060962  0.73335505  0.12797501    -0.07600
C519        C  0.68072029  0.75072754  0.09638066    -0.14000
C520        C  0.69432155  0.75680547  0.07860410    -0.13800
C521        C  0.71084855  0.76550031  0.05779913     0.25000
C522        C  0.70772107  0.76501531  0.02578950    -0.19200
C523        C  0.72383283  0.77449686  0.00564593    -0.07600
C524        C  0.74323495  0.78464814  0.01738426    -0.03700
C525        C  0.74625085  0.78489388  0.04954299    -0.09000
C526        C  0.73012522  0.77534275  0.06963241    -0.16700
H527        H  0.65742495  0.74618579  0.19508536     0.11500
H528        H  0.68387846  0.75374861  0.15827210     0.10800
H529        H  0.64242632  0.73542852  0.08253210     0.10700
H530        H  0.61585331  0.72780025  0.11912517     0.11200
H531        H  0.69284514  0.75755638  0.01644597     0.11300
H532        H  0.72111734  0.77418050  0.98096962     0.11200
H533        H  0.76105510  0.79262995  0.05916711     0.11400
H534        H  0.73268543  0.77588807  0.09440038     0.10200
C535        C  0.58378485  0.69267268  0.53776344    -0.03600
C536        C  0.56709298  0.68554650  0.51850712    -0.09400
C537        C  0.56927098  0.68968621  0.48674496    -0.17000
C538        C  0.58813918  0.70094872  0.47371448     0.25100
C539        C  0.60487601  0.70805329  0.49266487    -0.18700
C540        C  0.60272220  0.70395681  0.52454148    -0.07600
C541        C  0.59013239  0.70506210  0.44090018    -0.14000
C542        C  0.59080224  0.70790144  0.41329552    -0.13800
C543        C  0.59075038  0.71081134  0.38029833     0.25000
C544        C  0.60668929  0.71404039  0.36217676    -0.19200
C545        C  0.60657618  0.71683888  0.33014308    -0.07600
C546        C  0.59053666  0.71652317  0.31589624    -0.03700
C547        C  0.57452931  0.71313917  0.33420871    -0.09000
C548        C  0.57463943  0.71028055  0.36620635    -0.16700
H549        H  0.55232481  0.67691274  0.52804763     0.11500
H550        H  0.55621400  0.68412952  0.47234588     0.10800
H551        H  0.61956216  0.71679283  0.48283923     0.10700
H552        H  0.61582814  0.70969115  0.53884720     0.11200
H553        H  0.61920496  0.71441420  0.37280253     0.11300
H554        H  0.61907131  0.71936121  0.31655957     0.11200
H555        H  0.56193005  0.71269616  0.32380217     0.11400
H556        H  0.56217468  0.70769170  0.37996426     0.10200
C557        C  0.69403323  0.58977057  0.96750937    -0.03600
C558        C  0.70018123  0.60821032  0.98089330    -0.09400
C559        C  0.70497294  0.61145105  0.01248588    -0.17000
C560        C  0.70375829  0.59634076  0.03099799     0.25100
C561        C  0.69782587  0.57803294  0.01773880    -0.18700
C562        C  0.69298719  0.57475411  0.98625102    -0.07600
C563        C  0.70812988  0.59929451  0.06370989    -0.14000
C564        C  0.71102924  0.60055949  0.09133613    -0.13800
C565        C  0.71361507  0.60076998  0.12447228     0.25000
C566        C  0.71921125  0.58850180  0.13813695    -0.19200
C567        C  0.72095887  0.58802531  0.17035762    -0.07600
C568        C  0.71712635  0.59983050  0.18936527    -0.03700
C569        C  0.71161968  0.61220440  0.17548959    -0.09000
C570        C  0.70987635  0.61265994  0.14322731    -0.16700
H571        H  0.70116284  0.62005800  0.96699753     0.11500
H572        H  0.70951538  0.62567763  0.02248195     0.10800
H573        H  0.69682009  0.56622397  0.03180157     0.10700
H574        H  0.68839517  0.56044262  0.97657425     0.11200
H575        H  0.72206749  0.57917382  0.12389553     0.11300
H576        H  0.72522263  0.57835404  0.18040277     0.11200
H577        H  0.70857745  0.62144900  0.18957100     0.11400
H578        H  0.70545996  0.62215648  0.13294025     0.10200
C579        C  0.66482694  0.61374369  0.82338272    -0.03600
C580        C  0.65282521  0.61992080  0.83603754    -0.09400
C581        C  0.64637647  0.62992987  0.81758866    -0.17000
C582        C  0.65183841  0.63384694  0.78633197     0.25100
C583        C  0.66411116  0.62808610  0.77378069    -0.18700
C584        C  0.67059671  0.61813172  0.79217370    -0.07600
C585        C  0.64425711  0.64304224  0.76675396    -0.14000
C586        C  0.63746429  0.65004550  0.74975801    -0.13800
C587        C  0.62873349  0.65770363  0.72929927     0.25000
C588        C  0.63042990  0.65697810  0.69710947    -0.19200
C589        C  0.62109400  0.66350810  0.67725024    -0.07600
C590        C  0.60997603  0.67086941  0.68941023    -0.03700
C591        C  0.60873451  0.67196224  0.72175522    -0.09000
C592        C  0.61799313  0.66535413  0.74154441    -0.16700
H593        H  0.64818209  0.61674424  0.86000956     0.11500
H594        H  0.63687526  0.63431649  0.82755427     0.10800
H595        H  0.66841158  0.63100510  0.74963069     0.10700
H596        H  0.67981529  0.61353064  0.78180000     0.11200
H597        H  0.63870104  0.65107717  0.68736397     0.11300
H598        H  0.62228723  0.66249150  0.65244024     0.11200
H599        H  0.60020209  0.67748261  0.73177651     0.11400
H600        H  0.61652910  0.66594543  0.76639378     0.10200
C601        C  0.73240334  0.58651924  0.84349760    -0.03600
C602        C  0.74924900  0.60555286  0.83913889    -0.09400
C603        C  0.76688078  0.60790241  0.82855628    -0.17000
C604        C  0.76783734  0.59127644  0.82211213     0.25100
C605        C  0.75109496  0.57227495  0.82623660    -0.18700
C606        C  0.73346545  0.56989412  0.83687263    -0.07600
C607        C  0.78616105  0.59366381  0.81235996    -0.14000
C608        C  0.80151074  0.59511531  0.80577356    -0.13800
C609        C  0.81957853  0.59579043  0.80020522     0.25000
C610        C  0.82200097  0.58104635  0.81291637    -0.19200
C611        C  0.83959313  0.58166881  0.80841880    -0.07600
C612        C  0.85503492  0.59707695  0.79111781    -0.03700
C613        C  0.85253691  0.61187162  0.77833144    -0.09000
C614        C  0.83485473  0.61121381  0.78286289    -0.16700
H615        H  0.74882296  0.61860635  0.84406447     0.11500
H616        H  0.77978945  0.62266724  0.82559853     0.10800
H617        H  0.75170829  0.55930422  0.82144452     0.10700
H618        H  0.72069108  0.55506879  0.83995713     0.11200
H619        H  0.81030893  0.56910123  0.82647702     0.11300
H620        H  0.84114107  0.57012436  0.81863623     0.11200
H621        H  0.86424133  0.62393713  0.76498987     0.11400
H622        H  0.83314180  0.62274775  0.77302131     0.10200
C623        C  0.94909442  0.79844435  0.03117512    -0.03600
C624        C  0.93163864  0.78453975  0.04671458    -0.09400
C625        C  0.91418908  0.78435761  0.04204840    -0.17000
C626        C  0.91398143  0.79800704  0.02172376     0.25100
C627        C  0.93126219  0.81176591  0.00598016    -0.18700
C628        C  0.94871492  0.81200476  0.01067050    -0.07600
C629        C  0.89617243  0.79811494  0.01704027    -0.14000
C630        C  0.88188586  0.79917895  0.01210770    -0.13800
C631        C  0.86571762  0.80167901  0.00486476     0.25000
C632        C  0.86901714  0.82073633  0.00347078    -0.19200
C633        C  0.85372061  0.82344071  0.99487381    -0.07600
C634        C  0.83488693  0.80709225  0.98756562    -0.03700
C635        C  0.83155237  0.78794688  0.98954520    -0.09000
C636        C  0.84691803  0.78527005  0.99808429    -0.16700
H637        H  0.93151387  0.77391004  0.06262079     0.11500
H638        H  0.90090583  0.77363805  0.05435034     0.10800
H639        H  0.93126823  0.82237847  0.99015659     0.10700
H640        H  0.96191568  0.82282028  0.99831201     0.11200
H641        H  0.88350021  0.83354169  0.00863583     0.11300
H642        H  0.85668729  0.83834608  0.99365573     0.11200
H643        H  0.81717642  0.77509833  0.98406253     0.11400
H644        H  0.84420487  0.77045026  0.99902389     0.10200
C645        C  0.93853376  0.64415024  0.84424061    -0.03600
C646        C  0.93279209  0.64139916  0.87553183    -0.09400
C647        C  0.94190378  0.65726028  0.89621412    -0.17000
C648        C  0.95691497  0.67600669  0.88591181     0.25100
C649        C  0.96304753  0.67873736  0.85498211    -0.18700
C650        C  0.95389637  0.66291463  0.83423379    -0.07600
C651        C  0.96530061  0.69262365  0.90665097    -0.14000
C652        C  0.97145284  0.70652992  0.92389709    -0.13800
C653        C  0.97772125  0.72284489  0.94472844     0.25000
C654        C  0.98401201  0.74172667  0.93308534    -0.19200
C655        C  0.98918046  0.75732997  0.95343498    -0.07600
C656        C  0.98805581  0.75417736  0.98566816    -0.03700
C657        C  0.98192343  0.73523601  0.99714767    -0.09000
C658        C  0.97679982  0.71967463  0.97677968    -0.16700
H659        H  0.92095540  0.62711290  0.88384258     0.11500
H660        H  0.93699282  0.65498828  0.92008223     0.10800
H661        H  0.97463437  0.69318422  0.84675899     0.10700
H662        H  0.95862314  0.66542821  0.81027514     0.11200
H663        H  0.98470961  0.74433206  0.90831217     0.11300
H664        H  0.99383717  0.77178002  0.94397491     0.11200
H665        H  0.98093689  0.73241131  0.02186177     0.11400
H666        H  0.97189676  0.70511245  0.98603283     0.10200
C667        C  0.99439747  0.81385058  0.47933412    -0.03600
C668        C  0.97729219  0.79501667  0.48399557    -0.09400
C669        C  0.95941442  0.79314106  0.49205367    -0.17000
C670        C  0.95844505  0.81004823  0.49548898     0.25100
C671        C  0.97542602  0.82881446  0.49090737    -0.18700
C672        C  0.99327847  0.83071619  0.48288328    -0.07600
C673        C  0.94007678  0.80826200  0.50352114    -0.14000
C674        C  0.92491312  0.80726646  0.51011161    -0.13800
C675        C  0.90691468  0.80631511  0.51794389     0.25000
C676        C  0.89450223  0.79327002  0.54107011    -0.19200
C677        C  0.87697403  0.79225432  0.54859975    -0.07600
C678        C  0.87165841  0.80429942  0.53306059    -0.03700
C679        C  0.88423962  0.81742257  0.50993965    -0.09000
C680        C  0.90175745  0.81841971  0.50245072    -0.16700
H681        H  0.97774091  0.78177306  0.48142768     0.11500
H682        H  0.94636648  0.77853391  0.49554872     0.10800
H683        H  0.97486423  0.84199981  0.49349183     0.10700
H684        H  0.00620967  0.84539625  0.47943229     0.11200
H685        H  0.89833934  0.78383361  0.55321614     0.11300
H686        H  0.86752971  0.78197143  0.56641977     0.11200
H687        H  0.88048385  0.82683156  0.49751946     0.11400
H688        H  0.91123852  0.82857782  0.48451825     0.10200
C689        C  0.03656886  0.81104168  0.36148772    -0.03600
C690        C  0.04038975  0.82691882  0.34205864    -0.09400
C691        C  0.03597653  0.82388493  0.31042509    -0.17000
C692        C  0.02770453  0.80496584  0.29778279     0.25100
C693        C  0.02388026  0.78907185  0.31695820    -0.18700
C694        C  0.02828799  0.79208030  0.34864577    -0.07600
C695        C  0.02318931  0.80197042  0.26514942    -0.14000
C696        C  0.01967915  0.80022226  0.23771036    -0.13800
C697        C  0.01579160  0.79917969  0.20489249     0.25000
C698        C  0.02157618  0.78928448  0.18520978    -0.19200
C699        C  0.01832756  0.78890593  0.15320923    -0.07600
C700        C  0.00933091  0.79851126  0.14056647    -0.03700
C701        C  0.00346453  0.80829037  0.16053329    -0.09000
C702        C  0.00664296  0.80858151  0.19246625    -0.16700
H703        H  0.04671632  0.84167199  0.35133237     0.11500
H704        H  0.03898998  0.83629619  0.29583154     0.10800
H705        H  0.01746848  0.77436257  0.30743710     0.10700
H706        H  0.02514647  0.77958354  0.36310206     0.11200
H707        H  0.02872677  0.78200457  0.19455503     0.11300
H708        H  0.02303702  0.78130994  0.13834719     0.11200
H709        H  0.99646997  0.81578032  0.15145062     0.11400
H710        H  0.00212062  0.81630037  0.20744123     0.10200
C711        C  0.06044030  0.78469757  0.50809067    -0.03600
C712        C  0.07130594  0.77724740  0.49526977    -0.09400
C713        C  0.07685272  0.76646453  0.51361297    -0.17000
C714        C  0.07159364  0.76298376  0.54494706     0.25100
C715        C  0.06034045  0.76992417  0.55770359    -0.18700
C716        C  0.05477649  0.78071603  0.53938881    -0.07600
C717        C  0.07888119  0.75349111  0.56441801    -0.14000
C718        C  0.08617348  0.74680010  0.58096173    -0.13800
C719        C  0.09601238  0.74012084  0.60090460     0.25000
C720        C  0.09513955  0.74143593  0.63312830    -0.19200
C721        C  0.10554570  0.73593545  0.65250660    -0.07600
C722        C  0.11688316  0.72897532  0.63982867    -0.03700
C723        C  0.11748872  0.72746934  0.60746739    -0.09000
C724        C  0.10717051  0.73308172  0.58813080    -0.16700
H725        H  0.07583429  0.78007162  0.47122531     0.11500
H726        H  0.08561150  0.76121741  0.50352412     0.10800
H727        H  0.05623780  0.76736862  0.58195249     0.10700
H728        H  0.04637131  0.78625108  0.54984296     0.11200
H729        H  0.08661577  0.74694249  0.64325755     0.11300
H730        H  0.10481785  0.73722671  0.67735707     0.11200
H731        H  0.12618948  0.72225065  0.59709132     0.11400
H732        H  0.10806987  0.73213347  0.56322592     0.10200
C733        C  0.88762306  0.59116057  0.35226589    -0.03600
C734        C  0.89175922  0.61012046  0.34427545    -0.09400
C735        C  0.87637222  0.61293810  0.33652576    -0.17000
C736        C  0.85674912  0.59685241  0.33686373     0.25100
C737        C  0.85257526  0.57801014  0.34501579    -0.18700
C738        C  0.86789218  0.57515513  0.35258680    -0.07600
C739        C  0.84072570  0.59936355  0.32870389    -0.14000
C740        C  0.82633535  0.59991847  0.32218591    -0.13800
C741        C  0.80843263  0.59934436  0.31494649     0.25000
C742        C  0.79007716  0.58259449  0.32269073    -0.19200
C743        C  0.77263996  0.58207213  0.31616927    -0.07600
C744        C  0.77338504  0.59829701  0.30169591    -0.03700
C745        C  0.79185826  0.61496239  0.29367608    -0.09000
C746        C  0.80928117  0.61548541  0.30031935    -0.16700
H747        H  0.90685464  0.62268659  0.34376708     0.11500
H748        H  0.87976932  0.62759269  0.33021057     0.10800
H749        H  0.83744890  0.56547659  0.34539524     0.10700
H750        H  0.86428746  0.56041242  0.35872837     0.11200
H751        H  0.78925194  0.56998516  0.33392554     0.11300
H752        H  0.75860333  0.56902712  0.32251294     0.11200
H753        H  0.79284744  0.62766645  0.28253653     0.11400
H754        H  0.82340068  0.62850155  0.29418247     0.10200
C755        C  0.93506970  0.58970501  0.46809721    -0.03600
C756        C  0.94734154  0.60857131  0.48106887    -0.09400
C757        C  0.94678153  0.61140907  0.51291062    -0.17000
C758        C  0.93404108  0.59540902  0.53206965     0.25100
C759        C  0.92211214  0.57651030  0.51938009    -0.18700
C760        C  0.92262136  0.57365512  0.48759457    -0.07600
C761        C  0.93271664  0.59832833  0.56460764    -0.14000
C762        C  0.93052387  0.59982383  0.59184445    -0.13800
C763        C  0.92667168  0.60040751  0.62422891     0.25000
C764        C  0.90749385  0.58801032  0.63565441    -0.19200
C765        C  0.90363376  0.58811534  0.66716396    -0.07600
C766        C  0.91893642  0.60063219  0.68769537    -0.03700
C767        C  0.93814857  0.61318113  0.67602366    -0.09000
C768        C  0.94198842  0.61304623  0.64444118    -0.16700
H769        H  0.95706840  0.62117379  0.46653963     0.11500
H770        H  0.95607567  0.62609874  0.52250517     0.10800
H771        H  0.91221233  0.56402346  0.53400138     0.10700
H772        H  0.91305704  0.55895233  0.47821444     0.11200
H773        H  0.89553301  0.57815808  0.62022637     0.11300
H774        H  0.88869975  0.57829437  0.67549878     0.11200
H775        H  0.95020980  0.62295567  0.69133304     0.11400
H776        H  0.95689455  0.62268849  0.63584174     0.10200
C777        C  0.13781434  0.70526397  0.78980432    -0.03600
C778        C  0.11823916  0.69367628  0.80053168    -0.09400
C779        C  0.11441730  0.68945236  0.83219038    -0.17000
C780        C  0.13011543  0.69680544  0.85337389     0.25100
C781        C  0.14959703  0.70855914  0.84283989    -0.18700
C782        C  0.15343729  0.71276262  0.81128834    -0.07600
C783        C  0.12650766  0.69200012  0.88585245    -0.14000
C784        C  0.12500802  0.68841196  0.91326012    -0.13800
C785        C  0.12483060  0.68470430  0.94601693     0.25000
C786        C  0.13797962  0.67985395  0.95835438    -0.19200
C787        C  0.13848521  0.67698961  0.99027154    -0.07600
C788        C  0.12585228  0.67898424  0.01029508    -0.03700
C789        C  0.11253745  0.68366605  0.99771158    -0.09000
C790        C  0.11203939  0.68650819  0.96574186    -0.16700
H791        H  0.10593487  0.68769414  0.78444277     0.11500
H792        H  0.09927565  0.68031470  0.84008472     0.10800
H793        H  0.16185575  0.71431273  0.85901064     0.10700
H794        H  0.16865095  0.72172406  0.80367596     0.11200
H795        H  0.14799647  0.67848662  0.94332629     0.11300
H796        H  0.14892214  0.67345005  0.99931810     0.11200
H797        H  0.10265929  0.68532197  0.01260492     0.11400
H798        H  0.10184022  0.69031034  0.95646757     0.10200
C799        C  0.08529346  0.66270311  0.16597826    -0.03600
C800        C  0.08909282  0.66566098  0.19796640    -0.09400
C801        C  0.07375640  0.66082598  0.21864136    -0.17000
C802        C  0.05451285  0.65305082  0.20754575     0.25100
C803        C  0.05065975  0.65032374  0.17571474    -0.18700
C804        C  0.06596639  0.65512003  0.15500722    -0.07600
C805        C  0.03854742  0.64687053  0.22890836    -0.14000
C806        C  0.02507495  0.64057981  0.24696035    -0.13800
C807        C  0.00912450  0.63193351  0.26880448     0.25000
C808        C  0.98954922  0.62270876  0.25844374    -0.19200
C809        C  0.97401292  0.61335250  0.27963988    -0.07600
C810        C  0.97795695  0.61319954  0.31140271    -0.03700
C811        C  0.99765781  0.62270829  0.32163210    -0.09000
C812        C  0.01315482  0.63197104  0.30040317    -0.16700
H813        H  0.10384535  0.67144165  0.20702167     0.11500
H814        H  0.07684677  0.66287172  0.24328052     0.10800
H815        H  0.03578023  0.64421139  0.16695167     0.10700
H816        H  0.06264721  0.65269094  0.13047957     0.11200
H817        H  0.98629806  0.62251044  0.23398165     0.11300
H818        H  0.95894622  0.60607519  0.27118091     0.11200
H819        H  0.00107363  0.62265915  0.34595140     0.11400
H820        H  0.02826422  0.63893516  0.30857879     0.10200
C821        C  0.05606787  0.84813925  0.02290327    -0.03600
C822        C  0.07218147  0.84603537  0.01734185    -0.09400
C823        C  0.09070879  0.86256031  0.00969002    -0.17000
C824        C  0.09330404  0.88132281  0.00747473     0.25100
C825        C  0.07733554  0.88350477  0.01304899    -0.18700
C826        C  0.05883712  0.86703307  0.02070994    -0.07600
C827        C  0.11230413  0.89839280  0.99958010    -0.14000
C828        C  0.12806797  0.91301606  0.99335333    -0.13800
C829        C  0.14684223  0.93075553  0.98675511     0.25000
C830        C  0.15236532  0.94832130  0.00223643    -0.19200
C831        C  0.17074638  0.96548278  0.99646376    -0.07600
C832        C  0.18384887  0.96528773  0.97510383    -0.03700
C833        C  0.17815826  0.94763845  0.95944431    -0.09000
C834        C  0.15973408  0.93046538  0.96524663    -0.16700
H835        H  0.07046169  0.83164899  0.01892039     0.11500
H836        H  0.10298174  0.86070615  0.00548934     0.10800
H837        H  0.07917943  0.89795152  0.01145836     0.10700
H838        H  0.04669449  0.86908329  0.02489340     0.11200
H839        H  0.14250283  0.94872875  0.01889557     0.11300
H840        H  0.17473019  0.97888672  0.00879647     0.11200
H841        H  0.18794797  0.94710616  0.94280023     0.11400
H842        H  0.15559077  0.91695403  0.95309542     0.10200
C843        C  0.29215465  0.85824068  0.18026322    -0.03600
C844        C  0.29347096  0.84506307  0.16051430    -0.09400
C845        C  0.27651686  0.82698980  0.15248311    -0.17000
C846        C  0.25803135  0.82184890  0.16403507     0.25100
C847        C  0.25658584  0.83485689  0.18379880    -0.18700
C848        C  0.27354109  0.85295752  0.19186367    -0.07600
C849        C  0.24062193  0.80325030  0.15546569    -0.14000
C850        C  0.22643384  0.78749816  0.14787274    -0.13800
C851        C  0.20997293  0.76837821  0.13879637     0.25000
C852        C  0.19106333  0.76522236  0.13529639    -0.19200
C853        C  0.17503567  0.74644575  0.12740480    -0.07600
C854        C  0.17776793  0.73061927  0.12295758    -0.03700
C855        C  0.19686305  0.73401900  0.12590874    -0.09000
C856        C  0.21284488  0.75277361  0.13381461    -0.16700
H857        H  0.30759558  0.84875701  0.15118476     0.11500
H858        H  0.27782290  0.81704395  0.13718407     0.10800
H859        H  0.24236411  0.83103969  0.19289788     0.10700
H860        H  0.27208489  0.86283931  0.20706951     0.11200
H861        H  0.18867396  0.77720717  0.13897180     0.11300
H862        H  0.16049069  0.74425013  0.12516043     0.11200
H863        H  0.19940282  0.72211630  0.12252898     0.11400
H864        H  0.22741616  0.75505369  0.13634896     0.10200
C865        C  0.27085153  0.00322458  0.01699597    -0.03600
C866        C  0.26959744  0.00433848  0.04935547    -0.09400
C867        C  0.27911009  0.99799498  0.06920448    -0.17000
C868        C  0.29004340  0.99052890  0.05697339     0.25100
C869        C  0.29162436  0.98969840  0.02479614    -0.18700
C870        C  0.28210229  0.99599545  0.00493044    -0.07600
C871        C  0.29906188  0.98304650  0.07725051    -0.14000
C872        C  0.30613732  0.97594369  0.09344828    -0.13800
C873        C  0.31390857  0.96647122  0.11200932     0.25000
C874        C  0.31889287  0.95394371  0.09799570    -0.19200
C875        C  0.32553175  0.94396422  0.11602846    -0.07600
C876        C  0.32719553  0.94631602  0.14838403    -0.03700
C877        C  0.32247202  0.95915919  0.16227198    -0.09000
C878        C  0.31588381  0.96918651  0.14416579    -0.16700
H879        H  0.26098100  0.00978065  0.05931463     0.11500
H880        H  0.27771376  0.99866307  0.09405367     0.10800
H881        H  0.29999591  0.98391225  0.01503927     0.10700
H882        H  0.28330405  0.99493575  0.98013487     0.11200
H883        H  0.31739441  0.95167848  0.07315877     0.11300
H884        H  0.32902402  0.93413451  0.10470871     0.11200
H885        H  0.32363578  0.96125731  0.18713619     0.11400
H886        H  0.31206778  0.97883040  0.15529104     0.10200
C887        C  0.20460983  0.76546288  0.67653108    -0.03600
C888        C  0.20996056  0.78377661  0.68947657    -0.09400
C889        C  0.22826980  0.80076660  0.68262229    -0.17000
C890        C  0.24144056  0.79962729  0.66286325     0.25100
C891        C  0.23621777  0.78145366  0.64983509    -0.18700
C892        C  0.21788920  0.76445066  0.65659896    -0.07600
C893        C  0.26035953  0.81707970  0.65616284    -0.14000
C894        C  0.27624447  0.83169062  0.65064671    -0.13800
C895        C  0.29521435  0.84903521  0.64381508     0.25000
C896        C  0.31236526  0.84848842  0.64684971    -0.19200
C897        C  0.33078290  0.86520734  0.63956743    -0.07600
C898        C  0.33222820  0.88268420  0.62931667    -0.03700
C899        C  0.31495510  0.88317821  0.62660329    -0.09000
C900        C  0.29654029  0.86641334  0.63375342    -0.16700
H901        H  0.19998218  0.78497156  0.70483264     0.11500
H902        H  0.23217165  0.81477334  0.69278654     0.10800
H903        H  0.24631716  0.78042150  0.63451011     0.10700
H904        H  0.21413019  0.75052302  0.64632168     0.11200
H905        H  0.31149196  0.83512031  0.65471358     0.11300
H906        H  0.34388484  0.86449569  0.64207820     0.11200
H907        H  0.31567514  0.89647885  0.61881538     0.11400
H908        H  0.28334630  0.86698387  0.63134742     0.10200
C909        C  0.35121778  0.92346693  0.29597247    -0.03600
C910        C  0.36460644  0.94264447  0.30710038    -0.09400
C911        C  0.36830884  0.94598454  0.33892307    -0.17000
C912        C  0.35867061  0.93021732  0.35997287     0.25100
C913        C  0.34511003  0.91114102  0.34908479    -0.18700
C914        C  0.34139219  0.90777512  0.31730621    -0.07600
C915        C  0.36322474  0.93337491  0.39258939    -0.14000
C916        C  0.36721903  0.93517553  0.41986634    -0.13800
C917        C  0.37197203  0.93614400  0.45233918     0.25000
C918        C  0.38054696  0.92590203  0.46359809    -0.19200
C919        C  0.38432984  0.92591711  0.49527394    -0.07600
C920        C  0.37960794  0.93622378  0.51611342    -0.03700
C921        C  0.37143532  0.94688111  0.50458226    -0.09000
C922        C  0.36758478  0.94678461  0.47286421    -0.16700
H923        H  0.37237811  0.95500487  0.29119256     0.11500
H924        H  0.37886681  0.96080329  0.34706277     0.10800
H925        H  0.33759450  0.89881210  0.36513405     0.10700
H926        H  0.33100235  0.89285855  0.30940452     0.11200
H927        H  0.38405038  0.91765687  0.44793292     0.11300
H928        H  0.39071998  0.91766586  0.50350470     0.11200
H929        H  0.36766724  0.95495732  0.52013766     0.11400
H930        H  0.36095729  0.95477682  0.46442623     0.10200
C931        C  0.39730626  0.97652472  0.67199066    -0.03600
C932        C  0.40779360  0.99642332  0.66242263    -0.09400
C933        C  0.41307124  0.01145840  0.68387930    -0.17000
C934        C  0.40788914  0.00675844  0.71506695     0.25100
C935        C  0.39734079  0.98696660  0.72477200    -0.18700
C936        C  0.39203466  0.97189337  0.70332804    -0.07600
C937        C  0.41398505  0.02232767  0.73718113    -0.14000
C938        C  0.42017911  0.03581917  0.75517949    -0.13800
C939        C  0.42913607  0.05244355  0.77576546     0.25000
C940        C  0.42619038  0.04957252  0.80778792    -0.19200
C941        C  0.43613120  0.06569783  0.82785073    -0.07600
C942        C  0.44907229  0.08483527  0.81598886    -0.03700
C943        C  0.45164648  0.08760308  0.78377415    -0.09000
C944        C  0.44175056  0.07148573  0.76380017    -0.16700
H945        H  0.41213946  0.00037661  0.63845255     0.11500
H946        H  0.42136158  0.02675356  0.67620987     0.10800
H947        H  0.39339658  0.98320804  0.74892163     0.10700
H948        H  0.38407382  0.95667023  0.71131525     0.11200
H949        H  0.41649905  0.03485878  0.81725366     0.11300
H950        H  0.43388223  0.06317996  0.85258891     0.11200
H951        H  0.46156249  0.10217917  0.77403966     0.11400
H952        H  0.44419995  0.07383114  0.73905260     0.10200
C953        C  0.09919624  0.87384482  0.47429091    -0.03600
C954        C  0.11600475  0.88078865  0.45557414    -0.09400
C955        C  0.13330961  0.89898396  0.46182961    -0.17000
C956        C  0.13397229  0.91041235  0.48679525     0.25100
C957        C  0.11733873  0.90355391  0.50560952    -0.18700
C958        C  0.10004813  0.88536819  0.49943063    -0.07600
C959        C  0.15154029  0.92934763  0.49287082    -0.14000
C960        C  0.16578862  0.94546089  0.49846823    -0.13800
C961        C  0.18218156  0.96489640  0.50594034     0.25000
C962        C  0.17939241  0.98075249  0.50744091    -0.19200
C963        C  0.19509247  0.99955624  0.51569397    -0.07600
C964        C  0.21375702  0.00268231  0.52264077    -0.03700
C965        C  0.21651001  0.98673459  0.52076608    -0.09000
C966        C  0.20078198  0.96792802  0.51243600    -0.16700
H967        H  0.11575227  0.87218672  0.43608743     0.11500
H968        H  0.14611090  0.90417937  0.44712070     0.10800
H969        H  0.11770058  0.91231305  0.52496236     0.10700
H970        H  0.08732036  0.88037461  0.51420947     0.11200
H971        H  0.16504629  0.97854903  0.50245054     0.11300
H972        H  0.19259523  0.01160834  0.51684454     0.11200
H973        H  0.23078087  0.98879043  0.52581085     0.11400
H974        H  0.20308368  0.95574091  0.51129338     0.10200
C975        C  0.24613919  0.02583513  0.86377058    -0.03600
C976        C  0.26516945  0.03548941  0.85080552    -0.09400
C977        C  0.26780859  0.03940377  0.81893764    -0.17000
C978        C  0.25146569  0.03364178  0.79965281     0.25100
C979        C  0.23245050  0.02386389  0.81236816    -0.18700
C980        C  0.22979207  0.02001697  0.84422300    -0.07600
C981        C  0.25416043  0.03791937  0.76690113    -0.14000
C982        C  0.25590880  0.04140291  0.73943409    -0.13800
C983        C  0.25724694  0.04526478  0.70655966     0.25000
C984        C  0.24281765  0.04731796  0.69165458    -0.19200
C985        C  0.24372549  0.05054725  0.65962929    -0.07600
C986        C  0.25908713  0.05173299  0.64205757    -0.03700
C987        C  0.27364133  0.04985381  0.65723389    -0.09000
C988        C  0.27272087  0.04664710  0.68929740    -0.16700
H989        H  0.27801647  0.04020153  0.86534161     0.11500
H990        H  0.28259563  0.04700620  0.80937217     0.10800
H991        H  0.21968654  0.01931885  0.79768797     0.10700
H992        H  0.21495926  0.01254523  0.85357266     0.11200
H993        H  0.23077112  0.04627162  0.70475590     0.11300
H994        H  0.23230442  0.05192299  0.64857338     0.11200
H995        H  0.28564445  0.05071953  0.64428905     0.11400
H996        H  0.28398101  0.04509217  0.70056833     0.10200
C997        C  0.45383263  0.13817020  0.18688433    -0.03600
C998        C  0.46416713  0.15351473  0.16518140    -0.09400
C999        C  0.46306516  0.14933042  0.13361356    -0.17000
C1000       C  0.45159454  0.12977987  0.12323538     0.25100
C1001       C  0.44108389  0.11437593  0.14464095    -0.18700
C1002       C  0.44219143  0.11854391  0.17634362    -0.07600
C1003       C  0.45134639  0.12577868  0.09068651    -0.14000
C1004       C  0.45309594  0.12437906  0.06324051    -0.13800
C1005       C  0.45756231  0.12500349  0.03080775     0.25000
C1006       C  0.44280830  0.11296666  0.00935935    -0.19200
C1007       C  0.44741547  0.11419045  0.97781503    -0.07600
C1008       C  0.46683421  0.12747490  0.96747324    -0.03700
C1009       C  0.48152823  0.13939029  0.98921255    -0.09000
C1010       C  0.47690537  0.13816247  0.02062499    -0.16700
H1011       H  0.47328409  0.16875685  0.17262970     0.11500
H1012       H  0.47133378  0.16135760  0.11728927     0.10800
H1013       H  0.43221381  0.09917557  0.13688260     0.10700
H1014       H  0.43409652  0.10644502  0.19259313     0.11200
H1015       H  0.42777467  0.10274788  0.01696668     0.11300
H1016       H  0.43581551  0.10482563  0.96153797     0.11200
H1017       H  0.49659433  0.14975394  0.98191847     0.11400
H1018       H  0.48842926  0.14758070  0.03699325     0.10200
C1019       C  0.30563241  0.06944969  0.48735365    -0.03600
C1020       C  0.30164225  0.06368093  0.45610699    -0.09400
C1021       C  0.31710028  0.06863077  0.43553520    -0.17000
C1022       C  0.33673156  0.07939558  0.44590520     0.25100
C1023       C  0.34080089  0.08490408  0.47709813    -0.18700
C1024       C  0.32535676  0.07993625  0.49772217    -0.07600
C1025       C  0.35271218  0.08561672  0.42428213    -0.14000
C1026       C  0.36615464  0.09181613  0.40602500    -0.13800
C1027       C  0.38228137  0.10042520  0.38422890     0.25000
C1028       C  0.40185056  0.11061622  0.39490253    -0.19200
C1029       C  0.41751873  0.12008133  0.37388358    -0.07600
C1030       C  0.41379726  0.11946655  0.34188738    -0.03700
C1031       C  0.39411861  0.10894228  0.33129740    -0.09000
C1032       C  0.37846602  0.09949312  0.35235881    -0.16700
H1033       H  0.28659358  0.05559087  0.44747029     0.11500
H1034       H  0.31375580  0.06433893  0.41144150     0.10800
H1035       H  0.35593136  0.09331106  0.48537787     0.10700
H1036       H  0.32886601  0.08460229  0.52163218     0.11200
H1037       H  0.40499717  0.11152025  0.41950716     0.11300
H1038       H  0.43252723  0.12811866  0.38269139     0.11200
H1039       H  0.39082151  0.10827630  0.30678845     0.11400
H1040       H  0.36339080  0.09173368  0.34382016     0.10200
C1041       C  0.91527232  0.40321682  0.31400917    -0.03600
C1042       C  0.93414268  0.41999895  0.31961283    -0.09400
C1043       C  0.93632904  0.43817478  0.32636846    -0.17000
C1044       C  0.91969257  0.43971158  0.32761364     0.25100
C1045       C  0.90087168  0.42305421  0.32217300    -0.18700
C1046       C  0.89865694  0.40490145  0.31542596    -0.07600
C1047       C  0.92183743  0.45833219  0.33449322    -0.14000
C1048       C  0.92318336  0.47374209  0.34020412    -0.13800
C1049       C  0.92450206  0.49201774  0.34675638     0.25000
C1050       C  0.91087116  0.49589709  0.33351730    -0.19200
C1051       C  0.91231331  0.51380209  0.33939880    -0.07600
C1052       C  0.92745517  0.52803949  0.35853749    -0.03700
C1053       C  0.94097765  0.52395669  0.37201884    -0.09000
C1054       C  0.93948094  0.50600662  0.36615699    -0.16700
H1055       H  0.94717393  0.41908240  0.31867192     0.11500
H1056       H  0.95096137  0.45100849  0.33057366     0.10800
H1057       H  0.88790900  0.42410290  0.32310816     0.10700
H1058       H  0.88394977  0.39219986  0.31122856     0.11200
H1059       H  0.89920282  0.48513345  0.31851812     0.11300
H1060       H  0.90169401  0.51657580  0.32876339     0.11200
H1061       H  0.95273528  0.53465618  0.38694327     0.11400
H1062       H  0.95006061  0.50309083  0.37658241     0.10200
C1063       C  0.00200652  0.28070531  0.47163705    -0.03600
C1064       C  0.99368677  0.29099259  0.48359824    -0.09400
C1065       C  0.98752075  0.30057881  0.46364525    -0.17000
C1066       C  0.98961268  0.30001654  0.43154974     0.25100
C1067       C  0.99836338  0.29024706  0.41950026    -0.18700
C1068       C  0.00455410  0.28066047  0.43942217    -0.07600
C1069       C  0.98181382  0.30856238  0.41105154    -0.14000
C1070       C  0.97423407  0.31503600  0.39469520    -0.13800
C1071       C  0.96418918  0.32218506  0.37630400     0.25000
C1072       C  0.95930266  0.31637555  0.34536475    -0.19200
C1073       C  0.94879762  0.32267678  0.32797349    -0.07600
C1074       C  0.94302698  0.33483237  0.34138317    -0.03700
C1075       C  0.94817527  0.34077189  0.37235831    -0.09000
C1076       C  0.95867723  0.33445776  0.38970388    -0.16700
H1077       H  0.99155247  0.29126310  0.50830544     0.11500
H1078       H  0.98073945  0.30807401  0.47321317     0.10800
H1079       H  0.00002527  0.28968845  0.39469959     0.10700
H1080       H  0.01091759  0.27284298  0.42958499     0.11200
H1081       H  0.96340915  0.30680143  0.33480055     0.11300
H1082       H  0.94496035  0.31782517  0.30418963     0.11200
H1083       H  0.94385081  0.35006496  0.38329499     0.11400
H1084       H  0.96229877  0.33896057  0.41367652     0.10200
C1085       C  0.02040048  0.25263476  0.62504364    -0.03600
C1086       C  0.02193149  0.26888223  0.64040269    -0.09400
C1087       C  0.02474693  0.27084626  0.67260111    -0.17000
C1088       C  0.02609091  0.25662443  0.68979228     0.25100
C1089       C  0.02425629  0.24027089  0.67466171    -0.18700
C1090       C  0.02137308  0.23824918  0.64257249    -0.07600
C1091       C  0.02962036  0.25882123  0.72283258    -0.14000
C1092       C  0.03270391  0.26010960  0.75045020    -0.13800
C1093       C  0.03633543  0.26110838  0.78344282     0.25000
C1094       C  0.04167977  0.24867987  0.79731395    -0.19200
C1095       C  0.04493175  0.24939948  0.82934168    -0.07600
C1096       C  0.04293312  0.26261759  0.84795321    -0.03700
C1097       C  0.03765321  0.27511637  0.83385542    -0.09000
C1098       C  0.03436424  0.27434603  0.80182640    -0.16700
H1099       H  0.02109921  0.28011487  0.62751465     0.11500
H1100       H  0.02605718  0.28353328  0.68402650     0.10800
H1101       H  0.02522109  0.22913975  0.68764854     0.10700
H1102       H  0.02018374  0.22554878  0.63141214     0.11200
H1103       H  0.04325786  0.23836713  0.78338583     0.11300
H1104       H  0.04897391  0.23959436  0.83954714     0.11200
H1105       H  0.03595435  0.28540610  0.84761143     0.11400
H1106       H  0.03021801  0.28402797  0.79142667     0.10200
C1107       C  0.13953751  0.51065734  0.18257971    -0.03600
C1108       C  0.12080644  0.50664531  0.17354201    -0.09400
C1109       C  0.11824017  0.52217055  0.16540875    -0.17000
C1110       C  0.13435568  0.54179409  0.16631175     0.25100
C1111       C  0.15299945  0.54581280  0.17518853    -0.18700
C1112       C  0.15558992  0.53037581  0.18325353    -0.07600
C1113       C  0.13201321  0.55798286  0.15835957    -0.14000
C1114       C  0.13126410  0.57231424  0.15202247    -0.13800
C1115       C  0.13110034  0.58980861  0.14426556     0.25000
C1116       C  0.14506020  0.60807696  0.15738695    -0.19200
C1117       C  0.14509161  0.62512406  0.14936924    -0.07600
C1118       C  0.13111831  0.62405778  0.12815483    -0.03700
C1119       C  0.11712170  0.60564604  0.11521802    -0.09000
C1120       C  0.11714939  0.58864961  0.12318801    -0.16700
H1121       H  0.10821163  0.49156445  0.17271972     0.11500
H1122       H  0.10373754  0.51888869  0.15849923     0.10800
H1123       H  0.16556439  0.56092269  0.17593204     0.10700
H1124       H  0.17018159  0.53389208  0.19006940     0.11200
H1125       H  0.15594608  0.60915297  0.17372237     0.11300
H1126       H  0.15599423  0.63910229  0.15977746     0.11200
H1127       H  0.10618569  0.60439226  0.09884314     0.11400
H1128       H  0.10631465  0.57461049  0.11284599     0.10200
C1129       C  0.06327810  0.30913395  0.00337957    -0.03600
C1130       C  0.06921007  0.32802467  0.99190716    -0.09400
C1131       C  0.07528403  0.34380818  0.01223576    -0.17000
C1132       C  0.07549583  0.34088769  0.04421141     0.25100
C1133       C  0.06918745  0.32201674  0.05588806    -0.18700
C1134       C  0.06305251  0.30619174  0.03558971    -0.07600
C1135       C  0.08286534  0.35740969  0.06488771    -0.14000
C1136       C  0.08963341  0.37136717  0.08210019    -0.13800
C1137       C  0.09824543  0.38788457  0.10296394     0.25000
C1138       C  0.09432818  0.38465711  0.13472975    -0.19200
C1139       C  0.10348644  0.40053028  0.15533358    -0.07600
C1140       C  0.11671279  0.41981541  0.14435690    -0.03700
C1141       C  0.12020854  0.42301911  0.11231325    -0.09000
C1142       C  0.11104442  0.40711364  0.09173891    -0.16700
H1143       H  0.06948170  0.33067267  0.96721000     0.11500
H1144       H  0.08013417  0.35835886  0.00298582     0.10800
H1145       H  0.06931611  0.31960882  0.08061359     0.10700
H1146       H  0.05856447  0.29178187  0.04503539     0.11200
H1147       H  0.08444453  0.36982542  0.14362918     0.11300
H1148       H  0.10052530  0.39766412  0.17988743     0.11200
H1149       H  0.13033928  0.43773783  0.10323849     0.11400
H1150       H  0.11418172  0.40976635  0.06717914     0.10200
C1151       C  0.14449713  0.66187878  0.67587180    -0.03600
C1152       C  0.12663787  0.64614307  0.66383729    -0.09400
C1153       C  0.12464059  0.62806605  0.65708279    -0.17000
C1154       C  0.14043094  0.62549533  0.66236671     0.25100
C1155       C  0.15828299  0.64109629  0.67431477    -0.18700
C1156       C  0.16033313  0.65921817  0.68099311    -0.07600
C1157       C  0.13828628  0.60684141  0.65557032    -0.14000
C1158       C  0.13656260  0.59123790  0.64991440    -0.13800
C1159       C  0.13483774  0.57275115  0.64333463     0.25000
C1160       C  0.15114156  0.57089205  0.64768891    -0.19200
C1161       C  0.14950953  0.55291102  0.64162663    -0.07600
C1162       C  0.13154644  0.53659840  0.63099720    -0.03700
C1163       C  0.11526289  0.53860469  0.62646664    -0.09000
C1164       C  0.11690110  0.55659453  0.63268527    -0.16700
H1165       H  0.11423072  0.64782148  0.65959743     0.11500
H1166       H  0.11077759  0.61608983  0.64779346     0.10800
H1167       H  0.17059709  0.63924779  0.67848785     0.10700
H1168       H  0.17424620  0.67109985  0.69027059     0.11200
H1169       H  0.16509140  0.58331796  0.65588140     0.11300
H1170       H  0.16228852  0.55176370  0.64527748     0.11200
H1171       H  0.10124179  0.52623247  0.61841981     0.11400
H1172       H  0.10418625  0.55788727  0.62927346     0.10200
C1173       C  0.14067223  0.46355760  0.30077712    -0.03600
C1174       C  0.12312474  0.44841992  0.31461945    -0.09400
C1175       C  0.12031644  0.44834557  0.34665949    -0.17000
C1176       C  0.13496531  0.46342447  0.36523490     0.25100
C1177       C  0.15247970  0.47852818  0.35158804    -0.18700
C1178       C  0.15534361  0.47858250  0.31961785    -0.07600
C1179       C  0.13197237  0.46369638  0.39815954    -0.14000
C1180       C  0.13002919  0.46491608  0.42565046    -0.13800
C1181       C  0.12858388  0.46780951  0.45828731     0.25000
C1182       C  0.14049001  0.48670673  0.47102060    -0.19200
C1183       C  0.13932592  0.48976964  0.50258464    -0.07600
C1184       C  0.12624792  0.47393775  0.52195045    -0.03700
C1185       C  0.11420726  0.45499460  0.50902415    -0.09000
C1186       C  0.11538021  0.45195542  0.47736068    -0.16700
H1187       H  0.11156982  0.43667685  0.30067607     0.11500
H1188       H  0.10668003  0.43659774  0.35690334     0.10800
H1189       H  0.16389855  0.49033078  0.36564721     0.10700
H1190       H  0.16896531  0.49048866  0.30959704     0.11200
H1191       H  0.15075527  0.49909419  0.45654246     0.11300
H1192       H  0.14881584  0.50450361  0.51189488     0.11200
H1193       H  0.10403141  0.44252390  0.52342159     0.11400
H1194       H  0.10606828  0.43725728  0.46780682     0.10200
C1195       C  0.92023589  0.43735206  0.86313295    -0.03600
C1196       C  0.90623217  0.43600909  0.84171694    -0.09400
C1197       C  0.90501496  0.45251875  0.83513369    -0.17000
C1198       C  0.91775722  0.47057857  0.84985360     0.25100
C1199       C  0.93163641  0.47199299  0.87140620    -0.18700
C1200       C  0.93286192  0.45547754  0.87805207    -0.07600
C1201       C  0.91670572  0.48766401  0.84253527    -0.14000
C1202       C  0.91572116  0.50183438  0.83581442    -0.13800
C1203       C  0.91438520  0.51857946  0.82712604     0.25000
C1204       C  0.93158365  0.53720715  0.82246437    -0.19200
C1205       C  0.93027554  0.55336235  0.81342738    -0.07600
C1206       C  0.91172430  0.55106062  0.80886050    -0.03700
C1207       C  0.89452274  0.53233461  0.81376414    -0.09000
C1208       C  0.89585964  0.51621532  0.82284686    -0.16700
H1209       H  0.89628693  0.42222389  0.82993152     0.11500
H1210       H  0.89420335  0.45122255  0.81843392     0.10800
H1211       H  0.94157514  0.48588205  0.88295373     0.10700
H1212       H  0.94376654  0.45692149  0.89467095     0.11200
H1213       H  0.94600711  0.53922728  0.82567825     0.11300
H1214       H  0.94375998  0.56761438  0.80985515     0.11200
H1215       H  0.88003272  0.53013654  0.81051624     0.11400
H1216       H  0.88244428  0.50188869  0.82638123     0.10200
C1217       C  0.92546485  0.38094991  0.97544449    -0.03600
C1218       C  0.91226211  0.38260273  0.99461764    -0.09400
C1219       C  0.91245549  0.38006027  0.02667146    -0.17000
C1220       C  0.92584428  0.37585883  0.03999174     0.25100
C1221       C  0.93914930  0.37432507  0.02110810    -0.18700
C1222       C  0.93896155  0.37684160  0.98899003    -0.07600
C1223       C  0.92547652  0.37262849  0.07292206    -0.14000
C1224       C  0.92410669  0.36951840  0.10046707    -0.13800
C1225       C  0.92128978  0.36549961  0.13323516     0.25000
C1226       C  0.93642404  0.36675686  0.15160653    -0.19200
C1227       C  0.93364902  0.36312284  0.18351973    -0.07600
C1228       C  0.91566556  0.35812175  0.19735622    -0.03700
C1229       C  0.90047058  0.35665817  0.17867485    -0.09000
C1230       C  0.90329996  0.36037582  0.14683224    -0.16700
H1231       H  0.90171577  0.38576463  0.98482287     0.11500
H1232       H  0.90206639  0.38124209  0.04105054     0.10800
H1233       H  0.94956197  0.37105571  0.03116990     0.10700
H1234       H  0.94931943  0.37553091  0.97476555     0.11200
H1235       H  0.95038464  0.37064601  0.14131191     0.11300
H1236       H  0.94556626  0.36427566  0.19737216     0.11200
H1237       H  0.88648052  0.35285200  0.18872830     0.11400
H1238       H  0.89148010  0.35933970  0.13283040     0.10200
C1239       C  0.97145657  0.40255388  0.82249431    -0.03600
C1240       C  0.96789089  0.39847255  0.79066300    -0.09400
C1241       C  0.98349670  0.40365784  0.77036312    -0.17000
C1242       C  0.00289216  0.41294589  0.78155139     0.25100
C1243       C  0.00658271  0.41684223  0.81331101    -0.18700
C1244       C  0.99095213  0.41168790  0.83370229    -0.07600
C1245       C  0.01897314  0.41909645  0.76016766    -0.14000
C1246       C  0.03224049  0.42485977  0.74167639    -0.13800
C1247       C  0.04821503  0.43271124  0.71964804     0.25000
C1248       C  0.06772399  0.44143611  0.73011070    -0.19200
C1249       C  0.08338386  0.45022199  0.70902489    -0.07600
C1250       C  0.07973715  0.45041113  0.67714395    -0.03700
C1251       C  0.06007433  0.44120560  0.66669000    -0.09000
C1252       C  0.04441175  0.43243915  0.68784783    -0.16700
H1253       H  0.95303710  0.39145996  0.78136828     0.11500
H1254       H  0.98044866  0.40061558  0.74585616     0.10800
H1255       H  0.02154318  0.42405783  0.82224334     0.10700
H1256       H  0.99411521  0.41496731  0.85812102     0.11200
H1257       H  0.07086369  0.44177711  0.75464429     0.11300
H1258       H  0.09837186  0.45721894  0.71773621     0.11200
H1259       H  0.05683526  0.44118552  0.64227394     0.11400
H1260       H  0.02937832  0.42577666  0.67946586     0.10200
C1261       C  0.79510956  0.86990460  0.96828800    -0.03600
C1262       C  0.81124386  0.88550915  0.98418754    -0.09400
C1263       C  0.81253767  0.90352819  0.98819418    -0.17000
C1264       C  0.79771308  0.90616269  0.97645864     0.25100
C1265       C  0.78160561  0.89070440  0.96054461    -0.18700
C1266       C  0.78031011  0.87267179  0.95643902    -0.07600
C1267       C  0.79896381  0.92463884  0.98125116    -0.14000
C1268       C  0.80050899  0.94024908  0.98632957    -0.13800
C1269       C  0.80304646  0.95904752  0.99368810     0.25000
C1270       C  0.78656634  0.96055403  0.99833217    -0.19200
C1271       C  0.78912791  0.97870345  0.00663993    -0.07600
C1272       C  0.80822334  0.99554005  0.01049643    -0.03700
C1273       C  0.82468288  0.99393023  0.00550414    -0.09000
C1274       C  0.82209438  0.97579898  0.99714140    -0.16700
H1275       H  0.82284534  0.88377722  0.99356588     0.11500
H1276       H  0.82505565  0.91537653  0.00058130     0.10800
H1277       H  0.77001934  0.89255789  0.95143356     0.10700
H1278       H  0.76769034  0.86086799  0.94418913     0.11200
H1279       H  0.77175279  0.94767658  0.99580547     0.11300
H1280       H  0.77619000  0.97952258  0.01034568     0.11200
H1281       H  0.83955587  0.00665788  0.00824933     0.11400
H1282       H  0.83495671  0.97480483  0.99365839     0.10200
C1283       C  0.86945896  0.10206340  0.02386391    -0.03600
C1284       C  0.87240665  0.11997853  0.03493989    -0.09400
C1285       C  0.89037854  0.13782137  0.02985519    -0.17000
C1286       C  0.90556912  0.13791471  0.01371436     0.25100
C1287       C  0.90269370  0.12015550  0.00251554    -0.18700
C1288       C  0.88475989  0.10233789  0.00752525    -0.07600
C1289       C  0.92413773  0.15611795  0.00836987    -0.14000
C1290       C  0.94002612  0.17062464  0.00243570    -0.13800
C1291       C  0.95914083  0.18702940  0.99344840     0.25000
C1292       C  0.97601350  0.18624645  0.99873276    -0.19200
C1293       C  0.99445839  0.20160542  0.98831668    -0.07600
C1294       C  0.99621341  0.21793576  0.97251799    -0.03700
C1295       C  0.97924067  0.21871266  0.96757173    -0.09000
C1296       C  0.96079825  0.20331790  0.97796276    -0.16700
H1297       H  0.86082756  0.12019115  0.04748238     0.11500
H1298       H  0.89242599  0.15150021  0.03851715     0.10800
H1299       H  0.91433658  0.12007804  0.98991086     0.10700
H1300       H  0.88288044  0.08877596  0.99866747     0.11200
H1301       H  0.97487501  0.17365855  0.01057305     0.11300
H1302       H  0.00731764  0.20067591  0.99252571     0.11200
H1303       H  0.98020328  0.23114436  0.95550568     0.11400
H1304       H  0.94781115  0.20401134  0.97361234     0.10200
C1305       C  0.65800466  0.14606334  0.81133381    -0.03600
C1306       C  0.64114895  0.12809975  0.82076888    -0.09400
C1307       C  0.62359742  0.12719125  0.82777958    -0.17000
C1308       C  0.62266588  0.14419204  0.82538268     0.25100
C1309       C  0.63933874  0.16208083  0.81571192    -0.18700
C1310       C  0.65689421  0.16302298  0.80873320    -0.07600
C1311       C  0.60465578  0.14330873  0.83295381    -0.14000
C1312       C  0.58953840  0.14250032  0.83925084    -0.13800
C1313       C  0.57131959  0.14128019  0.84646943     0.25000
C1314       C  0.56783379  0.15565604  0.83518619    -0.19200
C1315       C  0.54993826  0.15418333  0.84150677    -0.07600
C1316       C  0.53530774  0.13831005  0.85925809    -0.03700
C1317       C  0.53899095  0.12403927  0.87076170    -0.09000
C1318       C  0.55688273  0.12552025  0.86437591    -0.16700
H1319       H  0.64156738  0.11479713  0.82288679     0.11500
H1320       H  0.61078075  0.11325167  0.83517144     0.10800
H1321       H  0.63879700  0.17532470  0.81367693     0.10700
H1322       H  0.66961757  0.17703676  0.80139170     0.11200
H1323       H  0.57888384  0.16792046  0.82130972     0.11300
H1324       H  0.54749879  0.16538662  0.83234689     0.11200
H1325       H  0.52797300  0.11163954  0.88443920     0.11400
H1326       H  0.55939622  0.11429533  0.87321942     0.10200
C1327       C  0.76122187  0.20368593  0.81051090    -0.03600
C1328       C  0.77722358  0.21236195  0.78976591    -0.09400
C1329       C  0.79420203  0.23078053  0.79632144    -0.17000
C1330       C  0.79540040  0.24068022  0.82369452     0.25100
C1331       C  0.77954670  0.23209510  0.84447317    -0.18700
C1332       C  0.76254834  0.21372912  0.83791671    -0.07600
C1333       C  0.81279074  0.25970847  0.83038928    -0.14000
C1334       C  0.82714930  0.27576191  0.83615290    -0.13800
C1335       C  0.84400763  0.29508624  0.84319312     0.25000
C1336       C  0.84190647  0.31139226  0.84443744    -0.19200
C1337       C  0.85815513  0.33013803  0.85166436    -0.07600
C1338       C  0.87672219  0.33279852  0.85782138    -0.03700
C1339       C  0.87877089  0.31638857  0.85627596    -0.09000
C1340       C  0.86248858  0.29763500  0.84901138    -0.16700
H1341       H  0.77656764  0.20496802  0.76843544     0.11500
H1342       H  0.80636483  0.23730832  0.78003794     0.10800
H1343       H  0.78030114  0.23962214  0.86571521     0.10700
H1344       H  0.75045267  0.20737708  0.85430266     0.11200
H1345       H  0.82768739  0.30960425  0.83994051     0.11300
H1346       H  0.85616353  0.34252608  0.85260582     0.11200
H1347       H  0.89291839  0.31803755  0.86080837     0.11400
H1348       H  0.86429362  0.28512287  0.84805996     0.10200
C1349       C  0.72492988  0.11557473  0.84432906    -0.03600
C1350       C  0.73981952  0.11249743  0.83447722    -0.09400
C1351       C  0.74641403  0.10305903  0.85395823    -0.17000
C1352       C  0.73812408  0.09644813  0.88341998     0.25100
C1353       C  0.72290242  0.09896884  0.89305460    -0.18700
C1354       C  0.71637706  0.10852377  0.87367790    -0.07600
C1355       C  0.74589092  0.08793966  0.90419414    -0.14000
C1356       C  0.75325248  0.08161682  0.92143839    -0.13800
C1357       C  0.76293469  0.07477918  0.94153439     0.25000
C1358       C  0.76169395  0.07565065  0.97378788    -0.19200
C1359       C  0.77168674  0.06964723  0.99319203    -0.07600
C1360       C  0.78312569  0.06278168  0.98054559    -0.03700
C1361       C  0.78413514  0.06176939  0.94815565    -0.09000
C1362       C  0.77410093  0.06772911  0.92880520    -0.16700
H1363       H  0.74673275  0.11785864  0.81206084     0.11500
H1364       H  0.75823501  0.10124722  0.84626101     0.10800
H1365       H  0.71635337  0.09391024  0.91577664     0.10700
H1366       H  0.70485259  0.11065770  0.88182174     0.11200
H1367       H  0.75316603  0.08114655  0.98393244     0.11300
H1368       H  0.77069868  0.07064565  0.01805558     0.11200
H1369       H  0.79284253  0.05656074  0.93777475     0.11400
H1370       H  0.77522216  0.06703061  0.90389740     0.10200
C1371       C  0.84772972  0.06247642  0.46992508    -0.03600
C1372       C  0.86656080  0.06514052  0.47221441    -0.09400
C1373       C  0.88315481  0.08380745  0.47874539    -0.17000
C1374       C  0.88110422  0.09998558  0.48311705     0.25100
C1375       C  0.86238587  0.09741562  0.48110815    -0.18700
C1376       C  0.84577898  0.07876787  0.47454715    -0.07600
C1377       C  0.89821437  0.11925679  0.48934120    -0.14000
C1378       C  0.91257517  0.13543719  0.49426733    -0.13800
C1379       C  0.92981636  0.15471656  0.49991576     0.25000
C1380       C  0.92892201  0.16763232  0.52062822    -0.19200
C1381       C  0.94574240  0.18630657  0.52630552    -0.07600
C1382       C  0.96363114  0.19224402  0.51127942    -0.03700
C1383       C  0.96438104  0.17922174  0.49040074    -0.09000
C1384       C  0.94756019  0.16056477  0.48477117    -0.16700
H1385       H  0.86847233  0.05282951  0.46880630     0.11500
H1386       H  0.89757842  0.08563746  0.48026028     0.10800
H1387       H  0.86063951  0.10984052  0.48448078     0.10700
H1388       H  0.83143780  0.07710811  0.47299749     0.11200
H1389       H  0.91524942  0.16324576  0.53245261     0.11300
H1390       H  0.94477871  0.19605662  0.54250320     0.11200
H1391       H  0.97798406  0.18342033  0.47853319     0.11400
H1392       H  0.94840869  0.15068453  0.46868866     0.10200
C1393       C  0.80317940  0.95971078  0.47526445    -0.03600
C1394       C  0.81130182  0.95948975  0.50417320    -0.09400
C1395       C  0.81268193  0.94334509  0.51289565    -0.17000
C1396       C  0.80600862  0.92729529  0.49280480     0.25100
C1397       C  0.79787027  0.92740726  0.46404619    -0.18700
C1398       C  0.79642896  0.94349637  0.45532671    -0.07600
C1399       C  0.80757990  0.91073714  0.50148964    -0.14000
C1400       C  0.80881399  0.89673431  0.50815811    -0.13800
C1401       C  0.81024029  0.87995061  0.51579957     0.25000
C1402       C  0.79513206  0.86088007  0.50710250    -0.19200
C1403       C  0.79647005  0.84455299  0.51463988    -0.07600
C1404       C  0.81301920  0.84715816  0.53078641    -0.03700
C1405       C  0.82816562  0.86636426  0.53932983    -0.09000
C1406       C  0.82674812  0.88265289  0.53193293    -0.16700
H1407       H  0.81655511  0.97176856  0.52002233     0.11500
H1408       H  0.81898537  0.94340131  0.53523340     0.10800
H1409       H  0.79266668  0.91506491  0.44832717     0.10700
H1410       H  0.79011159  0.94328820  0.43294412     0.11200
H1411       H  0.78232059  0.85863148  0.49450943     0.11300
H1412       H  0.78466060  0.82993035  0.50763029     0.11200
H1413       H  0.84107577  0.86878256  0.55179497     0.11400
H1414       H  0.83852792  0.89734408  0.53875985     0.10200
C1415       C  0.80670489  0.03918373  0.13259617    -0.03600
C1416       C  0.82263730  0.04438432  0.15273025    -0.09400
C1417       C  0.81945852  0.04050769  0.18453123    -0.17000
C1418       C  0.80033510  0.03138577  0.19671806     0.25100
C1419       C  0.78437385  0.02623673  0.17684154    -0.18700
C1420       C  0.78753681  0.03014790  0.14497995    -0.07600
C1421       C  0.79730482  0.02741575  0.22960297    -0.14000
C1422       C  0.79607343  0.02459052  0.25729744    -0.13800
C1423       C  0.79611157  0.02157283  0.29036069     0.25000
C1424       C  0.78274940  0.02271787  0.30975740    -0.19200
C1425       C  0.78301359  0.01980677  0.34182243    -0.07600
C1426       C  0.79666447  0.01571634  0.35484482    -0.03700
C1427       C  0.81011610  0.01478037  0.33521335    -0.09000
C1428       C  0.80982255  0.01767365  0.30325714    -0.16700
H1429       H  0.83755954  0.05139392  0.14388310     0.11500
H1430       H  0.83193987  0.04459213  0.19963100     0.10800
H1431       H  0.76950072  0.01917579  0.18593913     0.10700
H1432       H  0.77498742  0.02597699  0.13001487     0.11200
H1433       H  0.77213703  0.02584397  0.30011895     0.11300
H1434       H  0.77255725  0.02073388  0.35639687     0.11200
H1435       H  0.82087017  0.01176958  0.34455694     0.11400
H1436       H  0.82031514  0.01685913  0.28857965     0.10200
C1437       C  0.55108577  0.92542608  0.68346446    -0.03600
C1438       C  0.55339150  0.94379021  0.68991849    -0.09400
C1439       C  0.53856640  0.94734860  0.68173823    -0.17000
C1440       C  0.52131927  0.93260990  0.66700089     0.25100
C1441       C  0.51893653  0.91429944  0.66054251    -0.18700
C1442       C  0.53369942  0.91070573  0.66874280    -0.07600
C1443       C  0.50578353  0.93594228  0.65908189    -0.14000
C1444       C  0.49186849  0.93737175  0.65275450    -0.13800
C1445       C  0.47417923  0.93730135  0.64584126     0.25000
C1446       C  0.45690666  0.92478717  0.66258055    -0.19200
C1447       C  0.43937302  0.92383201  0.65518947    -0.07600
C1448       C  0.43888964  0.93540735  0.63091952    -0.03700
C1449       C  0.45636587  0.94819643  0.61448482    -0.09000
C1450       C  0.47391443  0.94909255  0.62187191    -0.16700
H1451       H  0.56660094  0.95535024  0.70137399     0.11500
H1452       H  0.54052026  0.96153907  0.68700283     0.10800
H1453       H  0.50561410  0.90275584  0.64927639     0.10700
H1454       H  0.53150650  0.89640914  0.66356779     0.11200
H1455       H  0.45693950  0.91559588  0.68116753     0.11300
H1456       H  0.42617255  0.91396681  0.66837483     0.11200
H1457       H  0.45641754  0.95734659  0.59577331     0.11400
H1458       H  0.48719265  0.95881525  0.60873334     0.10200
C1459       C  0.57960269  0.73586019  0.65449359    -0.03600
C1460       C  0.56265859  0.73699621  0.65238154    -0.09400
C1461       C  0.56365816  0.75455047  0.65971900    -0.17000
C1462       C  0.58157888  0.77117229  0.66933229     0.25100
C1463       C  0.59850930  0.77014730  0.67153629    -0.18700
C1464       C  0.59754655  0.75260589  0.66414786    -0.07600
C1465       C  0.58262955  0.78929383  0.67677088    -0.14000
C1466       C  0.58363667  0.80456608  0.68270028    -0.13800
C1467       C  0.58499791  0.82296247  0.68909649     0.25000
C1468       C  0.56982457  0.82570525  0.67964211    -0.19200
C1469       C  0.57146179  0.84381170  0.68469503    -0.07600
C1470       C  0.58832355  0.85943615  0.69927389    -0.03700
C1471       C  0.60334799  0.85646499  0.70922666    -0.09000
C1472       C  0.60169106  0.83833350  0.70411813    -0.16700
H1473       H  0.54863946  0.72432684  0.64499943     0.11500
H1474       H  0.55046007  0.75515772  0.65787910     0.10800
H1475       H  0.61246060  0.78291456  0.67893935     0.10700
H1476       H  0.61081064  0.75213184  0.66602906     0.11200
H1477       H  0.55682591  0.81392551  0.66803926     0.11300
H1478       H  0.55963547  0.84566187  0.67686027     0.11200
H1479       H  0.61648234  0.86823165  0.72054698     0.11400
H1480       H  0.61352443  0.83638243  0.71156465     0.10200
C1481       C  0.64047391  0.94487934  0.64670385    -0.03600
C1482       C  0.63687559  0.94053170  0.61493544    -0.09400
C1483       C  0.65250925  0.94862265  0.59384472    -0.17000
C1484       C  0.67193989  0.96125951  0.60415271     0.25100
C1485       C  0.67564086  0.96608947  0.63564440    -0.18700
C1486       C  0.65999276  0.95794127  0.65684224    -0.07600
C1487       C  0.68805802  0.96866076  0.58253011    -0.14000
C1488       C  0.70152810  0.97431131  0.56450534    -0.13800
C1489       C  0.71794067  0.98079500  0.54376144     0.25000
C1490       C  0.73715305  0.99454669  0.55390228    -0.19200
C1491       C  0.75324106  0.00040102  0.53433071    -0.07600
C1492       C  0.75031344  0.99252785  0.50433590    -0.03700
C1493       C  0.73095851  0.97886498  0.49415464    -0.09000
C1494       C  0.71485644  0.97304208  0.51378094    -0.16700
H1495       H  0.62200590  0.93047694  0.60646646     0.11500
H1496       H  0.64946405  0.94475228  0.56956127     0.10800
H1497       H  0.69063496  0.97586315  0.64388175     0.10700
H1498       H  0.66318480  0.96153502  0.68117246     0.11200
H1499       H  0.73972012  0.00060434  0.57706731     0.11300
H1500       H  0.76799170  0.01090501  0.54281183     0.11200
H1501       H  0.72829525  0.97255781  0.47117315     0.11400
H1502       H  0.70004553  0.96236119  0.50570126     0.10200
C1503       C  0.58680386  0.77444750  0.20743363    -0.03600
C1504       C  0.60257884  0.79356230  0.21499342    -0.09400
C1505       C  0.60134533  0.81007603  0.20835164    -0.17000
C1506       C  0.58433661  0.80759565  0.19421106     0.25100
C1507       C  0.56853129  0.78860114  0.18698409    -0.18700
C1508       C  0.56974557  0.77213526  0.19352650    -0.07600
C1509       C  0.58318377  0.82445797  0.18612897    -0.14000
C1510       C  0.58181303  0.83815406  0.17800518    -0.13800
C1511       C  0.58018821  0.85433909  0.16733853     0.25000
C1512       C  0.59694232  0.87170849  0.15640423    -0.19200
C1513       C  0.59547506  0.88755614  0.14626431    -0.07600
C1514       C  0.57718618  0.88614767  0.14687147    -0.03700
C1515       C  0.56035821  0.86852962  0.15742726    -0.09000
C1516       C  0.56187086  0.85272693  0.16766599    -0.16700
H1517       H  0.61590675  0.79574323  0.22563623     0.11500
H1518       H  0.61369484  0.82474852  0.21393812     0.10800
H1519       H  0.55533155  0.78652653  0.17597361     0.10700
H1520       H  0.55738001  0.75758854  0.18743973     0.11200
H1521       H  0.61115773  0.87303725  0.15586263     0.11300
H1522       H  0.60863555  0.90091776  0.13806979     0.11200
H1523       H  0.54608037  0.86704640  0.15807595     0.11400
H1524       H  0.54879188  0.83930363  0.17593907     0.10200
C1525       C  0.39620424  0.92063067  0.17758486    -0.03600
C1526       C  0.41028207  0.93768125  0.16125160    -0.09400
C1527       C  0.42859477  0.94049963  0.15346374    -0.17000
C1528       C  0.43306779  0.92635107  0.16199601     0.25100
C1529       C  0.41914461  0.90937391  0.17833216    -0.18700
C1530       C  0.40081568  0.90650167  0.18604825    -0.07600
C1531       C  0.45193280  0.92918929  0.15427221    -0.14000
C1532       C  0.46749315  0.93074630  0.14879806    -0.13800
C1533       C  0.48567990  0.93151114  0.14358766     0.25000
C1534       C  0.49987342  0.94537477  0.12298667    -0.19200
C1535       C  0.51742686  0.94586410  0.11796684    -0.07600
C1536       C  0.52091079  0.93242773  0.13344050    -0.03700
C1537       C  0.50662642  0.91864275  0.15418360    -0.09000
C1538       C  0.48914508  0.91820852  0.15921598    -0.16700
H1539       H  0.40712130  0.94881195  0.15445462     0.11500
H1540       H  0.43925530  0.95370521  0.14085235     0.10800
H1541       H  0.42246476  0.89835015  0.18513555     0.10700
H1542       H  0.39029051  0.89327851  0.19873369     0.11200
H1543       H  0.49736265  0.95576148  0.11078730     0.11300
H1544       H  0.52821360  0.95666781  0.10192324     0.11200
H1545       H  0.50896277  0.90818756  0.16653280     0.11400
H1546       H  0.47829619  0.90745033  0.17526040     0.10200
C1547       C  0.59228109  0.92045541  0.80343521    -0.03600
C1548       C  0.57756267  0.90465821  0.82119786    -0.09400
C1549       C  0.57636265  0.90672409  0.85311454    -0.17000
C1550       C  0.58981411  0.92460552  0.86770420     0.25100
C1551       C  0.60444988  0.94045433  0.85015141    -0.18700
C1552       C  0.60570730  0.93839668  0.81819828    -0.07600
C1553       C  0.58862415  0.92659613  0.90067561    -0.14000
C1554       C  0.58732622  0.92790108  0.92830452    -0.13800
C1555       C  0.58517532  0.92904456  0.96124416     0.25000
C1556       C  0.60176334  0.94082573  0.97997046    -0.19200
C1557       C  0.59952267  0.94201615  0.01190972    -0.07600
C1558       C  0.58064303  0.93137586  0.02544847    -0.03700
C1559       C  0.56411115  0.91948997  0.00649380    -0.09000
C1560       C  0.56636978  0.91836413  0.97463181    -0.16700
H1561       H  0.56699282  0.89068193  0.81042956     0.11500
H1562       H  0.56495802  0.89436128  0.86641805     0.10800
H1563       H  0.61490950  0.95438262  0.86116794     0.10700
H1564       H  0.61711627  0.95083310  0.80504449     0.11200
H1565       H  0.61640431  0.94911803  0.96988509     0.18500
H1566       H  0.61251721  0.95120552  0.02599051     0.11200
H1567       H  0.54939664  0.91110371  0.01628365     0.11400
H1568       H  0.55342737  0.90917957  0.96042232     0.10200
C1569       C  0.72545203  0.18442464  0.36880463    -0.03600
C1570       C  0.72854670  0.20349581  0.36932929    -0.09400
C1571       C  0.74733511  0.22019371  0.36361250    -0.17000
C1572       C  0.76327579  0.21806316  0.35731904     0.25100
C1573       C  0.76035176  0.19913290  0.35704446    -0.18700
C1574       C  0.74157330  0.18241474  0.36278231    -0.07600
C1575       C  0.78252172  0.23523873  0.35059843    -0.14000
C1576       C  0.79854951  0.24954174  0.34433338    -0.13800
C1577       C  0.81756120  0.26653578  0.33601171     0.25000
C1578       C  0.82791549  0.26556916  0.31073725    -0.19200
C1579       C  0.84612997  0.28215265  0.30209936    -0.07600
C1580       C  0.85422141  0.29993817  0.31864929    -0.03700
C1581       C  0.84384131  0.30076519  0.34418409    -0.09000
C1582       C  0.82561612  0.28415625  0.35279094    -0.16700
H1583       H  0.71641302  0.20549550  0.37392307     0.11500
H1584       H  0.74939260  0.23475054  0.36387969     0.10800
H1585       H  0.77255679  0.19728047  0.35217765     0.10700
H1586       H  0.73962859  0.16791588  0.36222501     0.11200
H1587       H  0.82184977  0.25202480  0.29757986     0.11300
H1588       H  0.85382746  0.28108923  0.28238324     0.11200
H1589       H  0.84975358  0.31426847  0.35738417     0.11400
H1590       H  0.81775916  0.28509461  0.37239935     0.10200
C1591       C  0.62068438  0.13682563  0.35295353    -0.03600
C1592       C  0.62324036  0.15169729  0.33224923    -0.09400
C1593       C  0.60698930  0.15246486  0.32222293    -0.17000
C1594       C  0.58797838  0.13834806  0.33264936     0.25100
C1595       C  0.58524568  0.12326845  0.35284884    -0.18700
C1596       C  0.60150577  0.12250247  0.36297327    -0.07600
C1597       C  0.57141005  0.13975083  0.32341615    -0.14000
C1598       C  0.55760768  0.14125336  0.31652998    -0.13800
C1599       C  0.54095040  0.14297998  0.30941799     0.25000
C1600       C  0.52171652  0.12669722  0.31371997    -0.19200
C1601       C  0.50547869  0.12840873  0.30767023    -0.07600
C1602       C  0.50828937  0.14647891  0.29733652    -0.03700
C1603       C  0.52765229  0.16275186  0.29285712    -0.09000
C1604       C  0.54388976  0.16099649  0.29886223    -0.16700
H1605       H  0.63783069  0.16285586  0.32403651     0.11500
H1606       H  0.60928168  0.16419285  0.30658770     0.10800
H1607       H  0.57058748  0.11224063  0.36102722     0.10700
H1608       H  0.59909820  0.11079311  0.37872887     0.11200
H1609       H  0.51926840  0.11269973  0.32193920     0.11300
H1610       H  0.49073178  0.11563845  0.31129845     0.11200
H1611       H  0.53023685  0.17682958  0.28482286     0.11400
H1612       H  0.55871421  0.17370577  0.29547477     0.10200
C1613       C  0.67300999  0.12927075  0.47680461    -0.03600
C1614       C  0.67114260  0.14186255  0.49711349    -0.09400
C1615       C  0.67435341  0.14136400  0.52889903    -0.17000
C1616       C  0.67936844  0.12822722  0.54078641     0.25100
C1617       C  0.68086083  0.11535014  0.52081403    -0.18700
C1618       C  0.67771005  0.11586721  0.48898068    -0.07600
C1619       C  0.68352236  0.12846485  0.57333494    -0.14000
C1620       C  0.68727915  0.12979520  0.60064128    -0.13800
C1621       C  0.69189335  0.13278662  0.63318721     0.25000
C1622       C  0.68591058  0.11663616  0.65312351    -0.19200
C1623       C  0.68989756  0.11971015  0.68492301    -0.07600
C1624       C  0.69991618  0.13898713  0.69702261    -0.03700
C1625       C  0.70598184  0.15510219  0.67677592    -0.09000
C1626       C  0.70199924  0.15200716  0.64508312    -0.16700
H1627       H  0.66759259  0.15236475  0.48835920     0.11500
H1628       H  0.67318856  0.15141616  0.54415316     0.10800
H1629       H  0.68472880  0.10512103  0.52976994     0.10700
H1630       H  0.67922452  0.10599221  0.47385101     0.11200
H1631       H  0.67803614  0.10169008  0.64414336     0.11300
H1632       H  0.68503538  0.10704786  0.70003734     0.11200
H1633       H  0.71369755  0.17011213  0.68546064     0.11400
H1634       H  0.70665720  0.16460639  0.62988306     0.10200
C1635       C  0.65800086  0.08951721  0.32254330    -0.03600
C1636       C  0.64617892  0.06968230  0.33223232    -0.09400
C1637       C  0.64089950  0.05431357  0.31136010    -0.17000
C1638       C  0.64740571  0.05857837  0.28061581     0.25100
C1639       C  0.65944185  0.07829276  0.27090993    -0.18700
C1640       C  0.66472865  0.09368954  0.29175059    -0.07600
C1641       C  0.64106116  0.04272185  0.25881835    -0.14000
C1642       C  0.63477993  0.02919504  0.24077972    -0.13800
C1643       C  0.62604961  0.01276425  0.21966456     0.25000
C1644       C  0.62659175  0.01609478  0.18768046    -0.19200
C1645       C  0.61693279  0.00009596  0.16731707    -0.07600
C1646       C  0.60657945  0.98057667  0.17875599    -0.03700
C1647       C  0.60642311  0.97735199  0.21086781    -0.09000
C1648       C  0.61611032  0.99336249  0.23117950    -0.16700
H1649       H  0.64074803  0.06605045  0.35579081     0.11500
H1650       H  0.63151626  0.03910966  0.31908594     0.10800
H1651       H  0.66450597  0.08176399  0.24714173     0.10700
H1652       H  0.67382208  0.10883862  0.28366606     0.11200
H1653       H  0.63417008  0.03105128  0.17852778     0.11300
H1654       H  0.61722503  0.00299991  0.14270570     0.11200
H1655       H  0.59852438  0.96247165  0.22032007     0.11400
H1656       H  0.61553576  0.99061340  0.25589830     0.10200
C1657       C  0.62954422  0.52551755  0.85170955    -0.03600
C1658       C  0.61369275  0.51574234  0.87257114    -0.09400
C1659       C  0.59681017  0.49754760  0.86473543    -0.17000
C1660       C  0.59553181  0.48898029  0.83592718     0.25100
C1661       C  0.61114889  0.49875217  0.81486178    -0.18700
C1662       C  0.62807550  0.51689191  0.82271121    -0.07600
C1663       C  0.57836214  0.47002207  0.82821273    -0.14000
C1664       C  0.56411884  0.45402214  0.82186937    -0.13800
C1665       C  0.54722968  0.43488320  0.81414909     0.25000
C1666       C  0.54928316  0.41861574  0.81105287    -0.19200
C1667       C  0.53294302  0.40007869  0.80312305    -0.07600
C1668       C  0.51434462  0.39761212  0.79832033    -0.03700
C1669       C  0.51237801  0.41398939  0.80161254    -0.09000
C1670       C  0.52874214  0.43252067  0.80945779    -0.16700
H1671       H  0.61443011  0.52206738  0.89503042     0.11500
H1672       H  0.58480769  0.49011051  0.88121192     0.10800
H1673       H  0.61030410  0.49228945  0.79246913     0.10700
H1674       H  0.64001450  0.52416430  0.80611208     0.11200
H1675       H  0.56351718  0.42027139  0.81469492     0.11300
H1676       H  0.53483633  0.38767938  0.80086954     0.11200
H1677       H  0.49820601  0.41248029  0.79808561     0.11400
H1678       H  0.52698379  0.44500533  0.81181177     0.10200
C1679       C  0.47347069  0.17809003  0.84933062    -0.03600
C1680       C  0.48899358  0.19788074  0.85306282    -0.09400
C1681       C  0.48631230  0.21329830  0.84516744    -0.17000
C1682       C  0.46811981  0.20913374  0.83347195     0.25100
C1683       C  0.45259379  0.18946972  0.82952074    -0.18700
C1684       C  0.45525480  0.17400424  0.83738738    -0.07600
C1685       C  0.46558880  0.22516554  0.82554738    -0.14000
C1686       C  0.46467043  0.23937856  0.81926073    -0.13800
C1687       C  0.46474805  0.25701728  0.81202813     0.25000
C1688       C  0.45193819  0.25664476  0.78940000    -0.19200
C1689       C  0.45224234  0.27390163  0.78213740    -0.07600
C1690       C  0.46536978  0.29170711  0.79748205    -0.03700
C1691       C  0.47824945  0.29197090  0.82009508    -0.09000
C1692       C  0.47792733  0.27470516  0.82731058    -0.16700
H1693       H  0.50318213  0.20143997  0.86215601     0.11500
H1694       H  0.49842395  0.22847921  0.84824116     0.10800
H1695       H  0.43845989  0.18610070  0.82043228     0.10700
H1696       H  0.44306474  0.15887776  0.83426466     0.11200
H1697       H  0.44174410  0.24303817  0.77736201     0.11300
H1698       H  0.44218944  0.27330840  0.76458986     0.11200
H1699       H  0.48853269  0.30549796  0.83222041     0.11400
H1700       H  0.48796406  0.27515224  0.84477474     0.10200
C1701       C  0.10199529  0.26350751  0.95917832    -0.03600
C1702       C  0.12079703  0.27990031  0.95181725    -0.09400
C1703       C  0.13776997  0.27952661  0.95837851    -0.17000
C1704       C  0.13608696  0.26281316  0.97239284     0.25100
C1705       C  0.11742767  0.24648152  0.97982338    -0.18700
C1706       C  0.10048299  0.24681638  0.97327517    -0.07600
C1707       C  0.15344001  0.26236445  0.97941022    -0.14000
C1708       C  0.16760063  0.26142441  0.98585463    -0.13800
C1709       C  0.18406784  0.25969626  0.99406997     0.25000
C1710       C  0.18073093  0.24144742  0.00404787    -0.19200
C1711       C  0.19665198  0.23966941  0.01220049    -0.07600
C1712       C  0.21611234  0.25614867  0.01048288    -0.03700
C1713       C  0.21937185  0.27444953  0.00043192    -0.09000
C1714       C  0.20339659  0.27619847  0.99226752    -0.16700
H1715       H  0.12236487  0.29296619  0.94105559     0.11500
H1716       H  0.15217547  0.29225524  0.95259660     0.10800
H1717       H  0.11597522  0.23349518  0.99073574     0.10700
H1718       H  0.08619206  0.23402220  0.97932692     0.11200
H1719       H  0.16582172  0.22859644  0.00554795     0.11300
H1720       H  0.19373012  0.22540058  0.01987196     0.11200
H1721       H  0.23422715  0.28736514  0.99890069     0.11400
H1722       H  0.20610869  0.29039369  0.98458659     0.10200
C1723       C  0.24491245  0.07042714  0.98008275    -0.03600
C1724       C  0.26314163  0.08653583  0.99029030    -0.09400
C1725       C  0.26505714  0.10455812  0.99742023    -0.17000
C1726       C  0.24881929  0.10668094  0.99427109     0.25100
C1727       C  0.23068213  0.09074772  0.98383139    -0.18700
C1728       C  0.22871130  0.07270904  0.97687439    -0.07600
C1729       C  0.25071412  0.12516850  0.00174648    -0.14000
C1730       C  0.25214870  0.14063886  0.00757447    -0.13800
C1731       C  0.25387837  0.15923199  0.01349383     0.25000
C1732       C  0.23753511  0.16104893  0.00917160    -0.19200
C1733       C  0.23943883  0.17934272  0.01338786    -0.07600
C1734       C  0.25769817  0.19601295  0.02220408    -0.03700
C1735       C  0.27395463  0.19399939  0.02705773    -0.09000
C1736       C  0.27205676  0.17571369  0.02261629    -0.16700
H1737       H  0.27584106  0.08515091  0.99296956     0.11500
H1738       H  0.27917300  0.11681174  0.00543519     0.10800
H1739       H  0.21804295  0.09224489  0.98116778     0.10700
H1740       H  0.21452896  0.06056521  0.96888233     0.11200
H1741       H  0.22338323  0.14838438  0.00220105     0.11300
H1742       H  0.22663512  0.18045081  0.00975935     0.11200
H1743       H  0.28817329  0.20660449  0.03389223     0.11400
H1744       H  0.28480611  0.17447653  0.02600670     0.10200
C1745       C  0.41915661  0.33080749  0.83454706    -0.03600
C1746       C  0.40064313  0.32547453  0.82222753    -0.09400
C1747       C  0.38488567  0.32079685  0.84193665    -0.17000
C1748       C  0.38745959  0.32134738  0.87411608     0.25100
C1749       C  0.40589297  0.32678699  0.88654203    -0.18700
C1750       C  0.42167888  0.33155774  0.86689107    -0.07600
C1751       C  0.37101307  0.31550437  0.89441686    -0.14000
C1752       C  0.35721129  0.30959538  0.91178564    -0.13800
C1753       C  0.34071905  0.30119437  0.93272291     0.25000
C1754       C  0.34383349  0.30550283  0.96440235    -0.19200
C1755       C  0.32797681  0.29610772  0.98508878    -0.07600
C1756       C  0.30884621  0.28227514  0.97424575    -0.03700
C1757       C  0.30578553  0.27838926  0.94230761    -0.09000
C1758       C  0.32164260  0.28777223  0.92169374    -0.16700
H1759       H  0.39832596  0.32481308  0.79739938     0.11500
H1760       H  0.37064847  0.31652232  0.83209166     0.10800
H1761       H  0.40800474  0.32712889  0.91141344     0.10700
H1762       H  0.43576784  0.33554647  0.87699216     0.11200
H1763       H  0.35856690  0.31580724  0.97318173     0.11300
H1764       H  0.33073897  0.29935447  0.00957934     0.11200
H1765       H  0.29120755  0.26777505  0.93333285     0.11400
H1766       H  0.31908701  0.28425606  0.89724426     0.10200
C1767       C  0.52205275  0.63259723  0.65344442    -0.03600
C1768       C  0.51685793  0.61425321  0.64080183    -0.09400
C1769       C  0.49818812  0.59739140  0.64642984    -0.17000
C1770       C  0.48450384  0.59865881  0.66473118     0.25100
C1771       C  0.48964483  0.61682942  0.67769247    -0.18700
C1772       C  0.50831139  0.63370328  0.67211381    -0.07600
C1773       C  0.46514190  0.58136248  0.66991155    -0.14000
C1774       C  0.44893459  0.56683591  0.67412245    -0.13800
C1775       C  0.42964366  0.54948541  0.67950211     0.25000
C1776       C  0.41329863  0.55128948  0.68345929    -0.19200
C1777       C  0.39466954  0.53452723  0.68963731    -0.07600
C1778       C  0.39217429  0.51574573  0.69190854    -0.03700
C1779       C  0.40860272  0.51400749  0.68748035    -0.09000
C1780       C  0.42723114  0.53079686  0.68133202    -0.16700
H1781       H  0.52715131  0.61298021  0.62634551     0.11500
H1782       H  0.49437419  0.58339904  0.63631798     0.10800
H1783       H  0.47918234  0.61798609  0.69191641     0.10700
H1784       H  0.51191425  0.64764798  0.68212865     0.11200
H1785       H  0.41498319  0.56566969  0.68202496     0.11300
H1786       H  0.38225172  0.53627736  0.69283800     0.11200
H1787       H  0.40708471  0.49971106  0.68903060     0.11400
H1788       H  0.43977396  0.52922361  0.67825593     0.10200
C1789       C  0.17327390  0.47705610  0.64301005    -0.03600
C1790       C  0.17154715  0.45858901  0.64248157    -0.09400
C1791       C  0.18741387  0.45688605  0.65176480    -0.17000
C1792       C  0.20520662  0.47360290  0.66164130     0.25100
C1793       C  0.20701644  0.49204258  0.66224701    -0.18700
C1794       C  0.19117457  0.49377027  0.65299961    -0.07600
C1795       C  0.22176278  0.47194566  0.67032466    -0.14000
C1796       C  0.23588407  0.47077818  0.67655210    -0.13800
C1797       C  0.25311257  0.46974816  0.68270204     0.25000
C1798       C  0.27118280  0.48339493  0.66872720    -0.19200
C1799       C  0.28790665  0.48239568  0.67430542    -0.07600
C1800       C  0.28681184  0.46772872  0.69402348    -0.03700
C1801       C  0.26861103  0.45403914  0.70794854    -0.09000
C1802       C  0.25187261  0.45504484  0.70229878    -0.16700
H1803       H  0.15794604  0.44547782  0.63489690     0.11500
H1804       H  0.18583434  0.44254341  0.65109087     0.10800
H1805       H  0.22070627  0.50510784  0.66972462     0.10700
H1806       H  0.19294467  0.50819350  0.65363120     0.11200
H1807       H  0.27235195  0.49482342  0.65348349     0.11300
H1808       H  0.30171802  0.49315628  0.66329003     0.11200
H1809       H  0.26732763  0.44258759  0.72323992     0.11400
H1810       H  0.23797963  0.44436375  0.71320927     0.10200
C1811       C  0.25082099  0.22245510  0.46804543    -0.03600
C1812       C  0.26944442  0.22456317  0.46838119    -0.09400
C1813       C  0.27123609  0.20860932  0.47684549    -0.17000
C1814       C  0.25444299  0.19035857  0.48501480     0.25100
C1815       C  0.23584415  0.18814869  0.48462147    -0.18700
C1816       C  0.23402926  0.20407702  0.47621775    -0.07600
C1817       C  0.25619563  0.17385231  0.49369538    -0.14000
C1818       C  0.25711084  0.15969131  0.50083096    -0.13800
C1819       C  0.25760704  0.14239382  0.50904836     0.25000
C1820       C  0.24233700  0.12362621  0.49942644    -0.19200
C1821       C  0.24275143  0.10680596  0.50727080    -0.07600
C1822       C  0.25845668  0.10853631  0.52491351    -0.03700
C1823       C  0.27372106  0.12741501  0.53455240    -0.09000
C1824       C  0.27329075  0.14423347  0.52665379    -0.16700
H1825       H  0.28262044  0.23855632  0.46224116     0.11500
H1826       H  0.28571213  0.21051543  0.47704167     0.10800
H1827       H  0.22273595  0.17410999  0.49085020     0.10700
H1828       H  0.21949312  0.20202010  0.47616594     0.11200
H1829       H  0.23011229  0.12199256  0.48581678     0.11300
H1830       H  0.23079930  0.09245566  0.49950725     0.11200
H1831       H  0.28601223  0.12918304  0.54811029     0.11400
H1832       H  0.28519404  0.15866311  0.53424860     0.10200
C1833       C  0.06823496  0.25524450  0.50486055    -0.03600
C1834       C  0.08512528  0.27425082  0.50058866    -0.09400
C1835       C  0.10303983  0.27652381  0.49167084    -0.17000
C1836       C  0.10422736  0.25984619  0.48693477     0.25100
C1837       C  0.08744694  0.24089139  0.49099972    -0.18700
C1838       C  0.06955557  0.23859164  0.49984838    -0.07600
C1839       C  0.12270278  0.26209758  0.47849587    -0.14000
C1840       C  0.13807296  0.26347998  0.47229688    -0.13800
C1841       C  0.15630014  0.26457305  0.46621978     0.25000
C1842       C  0.15788542  0.24830581  0.47301533    -0.19200
C1843       C  0.17575585  0.24948824  0.46831829    -0.07600
C1844       C  0.19226804  0.26697206  0.45670868    -0.03700
C1845       C  0.19051221  0.28317814  0.44952266    -0.09000
C1846       C  0.17260243  0.28198003  0.45432108    -0.16700
H1847       H  0.08448081  0.28731261  0.50414889     0.11500
H1848       H  0.11596542  0.29126406  0.48859889     0.10800
H1849       H  0.08820746  0.22788500  0.48744694     0.10700
H1850       H  0.05676496  0.22376946  0.50287426     0.11200
H1851       H  0.14535930  0.23476835  0.48222633     0.11300
H1852       H  0.17668162  0.23675503  0.47394181     0.11200
H1853       H  0.20301163  0.29680543  0.44052906     0.11400
H1854       H  0.17152009  0.29466301  0.44902080     0.10200
C1855       C  0.25345644  0.27213693  0.35049641    -0.03600
C1856       C  0.27204933  0.28527246  0.33723358    -0.09400
C1857       C  0.27489022  0.28486939  0.30533093    -0.17000
C1858       C  0.25917157  0.27140174  0.28640700     0.25100
C1859       C  0.24057852  0.25846964  0.29943806    -0.18700
C1860       C  0.23772576  0.25882104  0.33126427    -0.07600
C1861       C  0.26205945  0.27047186  0.25371994    -0.14000
C1862       C  0.26361227  0.26872138  0.22633401    -0.13800
C1863       C  0.26444301  0.26560765  0.19370286     0.25000
C1864       C  0.25283476  0.24652825  0.18149074    -0.19200
C1865       C  0.25311398  0.24343478  0.14971626    -0.07600
C1866       C  0.26498975  0.25942240  0.12971503    -0.03700
C1867       C  0.27678006  0.27851733  0.14217336    -0.09000
C1868       C  0.27650481  0.28158059  0.17401726    -0.16700
H1869       H  0.28442529  0.29563763  0.35155640     0.11500
H1870       H  0.28935550  0.29492132  0.29548510     0.10800
H1871       H  0.22831655  0.24797757  0.28502622     0.10700
H1872       H  0.22325139  0.24853693  0.34086499     0.11200
H1873       H  0.24343682  0.23405903  0.19649960     0.11300
H1874       H  0.24386694  0.22856759  0.14075459     0.11200
H1875       H  0.28606748  0.29108061  0.12728352     0.11400
H1876       H  0.28555503  0.29640955  0.18323006     0.10200
C1877       C  0.27923361  0.31349849  0.50947437    -0.03600
C1878       C  0.27584471  0.30934066  0.54134723    -0.09400
C1879       C  0.28559864  0.32449299  0.56310225    -0.17000
C1880       C  0.29891997  0.34394974  0.55328627     0.25100
C1881       C  0.30292961  0.34808117  0.52165008    -0.18700
C1882       C  0.29315825  0.33294411  0.49984051    -0.07600
C1883       C  0.30724483  0.35985067  0.57539812    -0.14000
C1884       C  0.31293506  0.37328199  0.59350486    -0.13800
C1885       C  0.31839607  0.38938406  0.61446213     0.25000
C1886       C  0.31398948  0.38563861  0.64606528    -0.19200
C1887       C  0.31813915  0.40112581  0.66606259    -0.07600
C1888       C  0.32670873  0.42054324  0.65463273    -0.03700
C1889       C  0.33138015  0.42422984  0.62295475    -0.09000
C1890       C  0.32721338  0.40873229  0.60300627    -0.16700
H1891       H  0.26523030  0.29448616  0.54941840     0.11500
H1892       H  0.28233283  0.32112517  0.58751069     0.10800
H1893       H  0.31318109  0.36309225  0.51378485     0.10700
H1894       H  0.29610346  0.33654286  0.47544105     0.11200
H1895       H  0.30708326  0.37070992  0.65516716     0.11300
H1896       H  0.31442902  0.39787813  0.69036221     0.11200
H1897       H  0.33801689  0.43904709  0.61352215     0.11400
H1898       H  0.33060380  0.41179665  0.57857340     0.10200
C1899       C  0.47522635  0.32873674  0.34272201    -0.03600
C1900       C  0.49173184  0.32686746  0.34153161    -0.09400
C1901       C  0.48939483  0.30871385  0.33428741    -0.17000
C1902       C  0.47056171  0.29224265  0.32811236     0.25100
C1903       C  0.45404261  0.29398355  0.32911641    -0.18700
C1904       C  0.45634864  0.31214552  0.33640511    -0.07600
C1905       C  0.46826432  0.27355460  0.32107698    -0.14000
C1906       C  0.46691646  0.25810684  0.31558216    -0.13800
C1907       C  0.46588287  0.23991254  0.30935334     0.25000
C1908       C  0.45161716  0.22611637  0.28888162    -0.19200
C1909       C  0.45075345  0.20851300  0.28265064    -0.07600
C1910       C  0.46416720  0.20452798  0.29685193    -0.03700
C1911       C  0.47842193  0.21844019  0.31744895    -0.09000
C1912       C  0.47926435  0.23604097  0.32364232    -0.16700
H1913       H  0.50643381  0.33941090  0.34633512     0.11500
H1914       H  0.50226914  0.30750745  0.33360301     0.10800
H1915       H  0.43940006  0.28130594  0.32438216     0.10700
H1916       H  0.44339485  0.31320241  0.33716537     0.11200
H1917       H  0.44118248  0.22896965  0.27772543     0.11300
H1918       H  0.43957643  0.19801008  0.26678155     0.11200
H1919       H  0.48888191  0.21570395  0.32878460     0.11400
H1920       H  0.49035333  0.24663155  0.33954522     0.10200
C1921       C  0.53723480  0.43312274  0.34901571    -0.03600
C1922       C  0.54910806  0.43355225  0.32474544    -0.09400
C1923       C  0.56777317  0.45045208  0.31938912    -0.17000
C1924       C  0.57482712  0.46710070  0.33825068     0.25100
C1925       C  0.56316181  0.46674746  0.36263028    -0.18700
C1926       C  0.54444958  0.44986294  0.36797696    -0.07600
C1927       C  0.59393695  0.48456949  0.33230339    -0.14000
C1928       C  0.60993864  0.49905264  0.32672002    -0.13800
C1929       C  0.62912301  0.51611690  0.31968113     0.25000
C1930       C  0.63111871  0.53409089  0.31136607    -0.19200
C1931       C  0.64978019  0.55063385  0.30447720    -0.07600
C1932       C  0.66664309  0.54934548  0.30579153    -0.03700
C1933       C  0.66449930  0.53123216  0.31408447    -0.09000
C1934       C  0.64584948  0.51473098  0.32099260    -0.16700
H1935       H  0.54394243  0.42084833  0.30984263     0.11500
H1936       H  0.57667968  0.45055194  0.30047887     0.10800
H1937       H  0.56849549  0.47953298  0.37742397     0.10700
H1938       H  0.53565643  0.44988199  0.38695227     0.11200
H1939       H  0.61826192  0.53531584  0.31020484     0.11300
H1940       H  0.65101578  0.56439795  0.29808695     0.11200
H1941       H  0.67723853  0.52982168  0.31525522     0.11400
H1942       H  0.64447619  0.50089096  0.32734350     0.10200
C1943       C  0.46500088  0.34969551  0.68237567    -0.03600
C1944       C  0.45402569  0.35693793  0.66876518    -0.09400
C1945       C  0.45454708  0.35986028  0.63668821    -0.17000
C1946       C  0.46600695  0.35555336  0.61794491     0.25100
C1947       C  0.47694460  0.34832183  0.63134139    -0.18700
C1948       C  0.47645484  0.34540675  0.66335839    -0.07600
C1949       C  0.46674795  0.35870604  0.58500695    -0.14000
C1950       C  0.46793088  0.36147190  0.55740741    -0.13800
C1951       C  0.47013113  0.36509787  0.52455985     0.25000
C1952       C  0.48905777  0.37582023  0.51162900    -0.19200
C1953       C  0.49135054  0.37941701  0.47975323    -0.07600
C1954       C  0.47471661  0.37237696  0.46041644    -0.03700
C1955       C  0.45573226  0.36161004  0.47353843    -0.09000
C1956       C  0.45346409  0.35796247  0.50548007    -0.16700
H1957       H  0.44513731  0.36042020  0.68290761     0.11500
H1958       H  0.44607035  0.36551921  0.62652994     0.10800
H1959       H  0.48589766  0.34498878  0.61704759     0.10700
H1960       H  0.48508809  0.33985509  0.67324076     0.11200
H1961       H  0.50204973  0.38139242  0.52618792     0.11300
H1962       H  0.50614479  0.38773683  0.47024375     0.11200
H1963       H  0.44268183  0.35594208  0.45911611     0.11400
H1964       H  0.43874494  0.34959813  0.51528001     0.10200
C1965       C  0.32568478  0.47998700  0.14125974    -0.03600
C1966       C  0.32387410  0.49653022  0.13885896    -0.09400
C1967       C  0.30573133  0.49465615  0.14427676    -0.17000
C1968       C  0.28916765  0.47625991  0.15232136     0.25100
C1969       C  0.29080597  0.45966724  0.15474965    -0.18700
C1970       C  0.30896661  0.46149966  0.14919006    -0.07600
C1971       C  0.27066355  0.47461498  0.15863772    -0.14000
C1972       C  0.25545991  0.47372301  0.16446771    -0.13800
C1973       C  0.23739508  0.47267609  0.17207590     0.25000
C1974       C  0.22245038  0.45623637  0.18818664    -0.19200
C1975       C  0.20487952  0.45512081  0.19565225    -0.07600
C1976       C  0.20201053  0.47042301  0.18696184    -0.03700
C1977       C  0.21711316  0.48693988  0.17087913    -0.09000
C1978       C  0.23472719  0.48807381  0.16355835    -0.16700
H1979       H  0.33648699  0.51093403  0.13270809     0.11500
H1980       H  0.30465074  0.50759405  0.14233798     0.10800
H1981       H  0.27808684  0.44535679  0.16104115     0.10700
H1982       H  0.30996359  0.44852449  0.15124619     0.11200
H1983       H  0.22436210  0.44424975  0.19492835     0.11300
H1984       H  0.19346829  0.44220808  0.20796111     0.11200
H1985       H  0.21530094  0.49895666  0.16395563     0.11400
H1986       H  0.24621955  0.50090819  0.15118556     0.10200
C1987       C  0.54479488  0.66845744  0.19769318    -0.03600
C1988       C  0.52718092  0.66535328  0.18475326    -0.09400
C1989       C  0.51145682  0.64619159  0.17830190    -0.17000
C1990       C  0.51314245  0.62994196  0.18475104     0.25100
C1991       C  0.53073876  0.63291849  0.19720773    -0.18700
C1992       C  0.54651469  0.65209267  0.20361363    -0.07600
C1993       C  0.49664638  0.61025549  0.17895820    -0.14000
C1994       C  0.48235476  0.59410699  0.17368997    -0.13800
C1995       C  0.46498609  0.57528737  0.16629759     0.25000
C1996       C  0.46527943  0.56437874  0.14132953    -0.19200
C1997       C  0.44818704  0.54651749  0.13311488    -0.07600
C1998       C  0.43056736  0.53938841  0.14974661    -0.03700
C1999       C  0.43043221  0.55031093  0.17505518    -0.09000
C2000       C  0.44757363  0.56818288  0.18327006    -0.16700
H2001       H  0.52549753  0.67771107  0.17987724     0.11500
H2002       H  0.49791323  0.64403373  0.16856861     0.10800
H2003       H  0.53219607  0.62043008  0.20222384     0.10700
H2004       H  0.55993899  0.65409729  0.21356156     0.11200
H2005       H  0.47866737  0.56978013  0.12800589     0.11300
H2006       H  0.44870955  0.53837874  0.11356943     0.11200
H2007       H  0.41707049  0.54511034  0.18832913     0.11400
H2008       H  0.44719296  0.57654838  0.20261536     0.10200
C2009       C  0.37475892  0.48002294  0.02842713    -0.03600
C2010       C  0.36809856  0.46156980  0.01468261    -0.09400
C2011       C  0.36526420  0.45921331  0.98254727    -0.17000
C2012       C  0.36905233  0.47525163  0.96373775     0.25100
C2013       C  0.37609673  0.49376872  0.97720800    -0.18700
C2014       C  0.37896230  0.49615760  0.00930123    -0.07600
C2015       C  0.36499640  0.47258637  0.93085736    -0.14000
C2016       C  0.36104205  0.47059950  0.90350918    -0.13800
C2017       C  0.35591800  0.46870711  0.87099911     0.25000
C2018       C  0.34627992  0.47775721  0.85907487    -0.19200
C2019       C  0.34168328  0.47641523  0.82748782    -0.07600
C2020       C  0.34661744  0.46594171  0.80733673    -0.03700
C2021       C  0.35600460  0.45660325  0.81952188    -0.09000
C2022       C  0.36066094  0.45802227  0.85115220    -0.16700
H2023       H  0.36481852  0.44890315  0.02881057     0.11500
H2024       H  0.35982863  0.44481182  0.97243944     0.10800
H2025       H  0.37909283  0.50630467  0.96295466     0.10700
H2026       H  0.38416031  0.51055801  0.01920315     0.11200
H2027       H  0.34247171  0.48601764  0.87415849     0.11300
H2028       H  0.33442870  0.48373402  0.81877766     0.11200
H2029       H  0.36002730  0.44848570  0.80452909     0.11400
H2030       H  0.36809860  0.45092926  0.86006556     0.10200
C2031       C  0.44796822  0.39588849  0.31257450    -0.03600
C2032       C  0.43946033  0.40573603  0.32558532    -0.09400
C2033       C  0.42915489  0.41169916  0.30689309    -0.17000
C2034       C  0.42715610  0.40780104  0.27504904     0.25100
C2035       C  0.43519763  0.39759680  0.26207164    -0.18700
C2036       C  0.44553742  0.39166400  0.28069996    -0.07600
C2037       C  0.41770169  0.41506519  0.25542103    -0.14000
C2038       C  0.41074704  0.42194627  0.23852783    -0.13800
C2039       C  0.40357146  0.43116515  0.21816598     0.25000
C2040       C  0.39294186  0.43900549  0.23018329    -0.19200
C2041       C  0.38708425  0.44909306  0.21075620    -0.07600
C2042       C  0.39182027  0.45148063  0.17904913    -0.03700
C2043       C  0.40214159  0.44321015  0.16701878    -0.09000
C2044       C  0.40799315  0.43312768  0.18649397    -0.16700
H2045       H  0.44111158  0.40917545  0.35006658     0.11500
H2046       H  0.42304049  0.41963582  0.31717701     0.10800
H2047       H  0.43377429  0.39452966  0.23745446     0.10700
H2048       H  0.45189923  0.38405912  0.27008081     0.11200
H2049       H  0.38948546  0.43762883  0.25466284     0.11300
H2050       H  0.37917795  0.45534323  0.22065154     0.11200
H2051       H  0.40602374  0.44486984  0.14270597     0.11400
H2052       H  0.41626673  0.42717161  0.17695540     0.10200
loop_ 
_geom_bond_atom_site_label_1 
_geom_bond_atom_site_label_2 
_geom_bond_distance 
_geom_bond_site_symmetry_2 
_ccdc_geom_bond_type 
In1           O3   2.245       .  S
In1           O4   2.251       .  S
In1          O12   2.258       .  S
In1           O6   2.239       .  S
In1           O8   2.250       .  S
In1           O9   2.258       .  S
In1          O10   2.244       .  S
In1          O13   2.249       .  S
C2            O8   1.260       .  A
C2           O10   1.260       .  A
C2         C1998   1.476       .  S
O3           C11   1.260       .  A
O4           C11   1.261       .  A
C5           O12   1.262       .  A
C5            O6   1.260       .  A
C5         C1965   1.478       .  S
C7            O9   1.262       .  A
C7           O13   1.261       .  A
C7         C2009   1.482       .  S
C11        C2042   1.478       .  S
In14         O16   2.244       .  S
In14         O17   2.251       .  S
In14         O25   2.248       .  S
In14         O19   2.238       .  S
In14         O21   2.242       .  S
In14         O22   2.256       .  S
In14         O23   2.248       .  S
In14         O26   2.235       .  S
C15          O21   1.261       .  A
C15          O23   1.262       .  A
C15        C1921   1.477       .  S
O16          C24   1.260       .  A
O17          C24   1.261       .  A
C18          O25   1.260       .  A
C18          O19   1.260       .  A
C18        C1899   1.474       .  S
C20          O22   1.261       .  A
C20          O26   1.259       .  A
C20        C1954   1.475       .  S
C24        C2031   1.477       .  S
In27         O29   2.245       .  S
In27         O30   2.253       .  S
In27         O38   2.255       .  S
In27         O32   2.243       .  S
In27         O34   2.234       .  S
In27         O35   2.256       .  S
In27         O36   2.256       .  S
In27         O39   2.239       .  S
C28          O34   1.259       .  A
C28          O36   1.261       .  A
C28        C1844   1.475       .  S
O29          C37   1.260       .  A
O30          C37   1.261       .  A
C31          O38   1.262       .  A
C31          O32   1.259       .  A
C31        C1811   1.479       .  S
C33          O35   1.260       .  A
C33          O39   1.259       .  A
C33        C1855   1.476       .  S
C37        C1877   1.478       .  S
In40         O42   2.258       .  S
In40         O43   2.250       .  S
In40         O51   2.250       .  S
In40         O45   2.261       .  S
In40         O47   2.253       .  S
In40         O48   2.245       .  S
In40         O49   2.244       .  S
In40         O52   2.249       .  S
C41          O47   1.262       .  A
C41          O49   1.260       .  A
C41        C1888   1.478       .  S
O42          C50   1.262       .  A
O43          C50   1.261       .  A
C44          O51   1.259       .  A
C44          O45   1.261       .  A
C44        C2020   1.481       .  S
C46          O48   1.260       .  A
C46          O52   1.260       .  A
C46        C1778   1.477       .  S
C50        C1800   1.482       .  S
In53         O55   2.249       .  S
In53         O56   2.240       .  S
In53         O64   2.243       .  S
In53         O58   2.260       .  S
In53         O60   2.249       .  S
In53         O61   2.237       .  S
In53         O62   2.235   1_554  S
In53         O65   2.256       .  S
C54          O60   1.263   1_556  A
C54          O62   1.261       .  A
C54        C1756   1.476       .  S
O55          C63   1.262       .  A
O56          C63   1.261       .  A
C57          O64   1.257       .  A
C57          O58   1.260       .  A
C57        C1866   1.477       .  S
C59          O61   1.258       .  A
C59          O65   1.260       .  A
C59        C1712   1.474       .  S
C63        C1734   1.477       .  S
In66         O68   2.244       .  S
In66         O69   2.242       .  S
In66         O77   2.237       .  S
In66         O71   2.252       .  S
In66         O73   2.251       .  S
In66         O74   2.245       .  S
In66         O75   2.239       .  S
In66         O78   2.242       .  S
C67          O73   1.262       .  A
C67          O75   1.260       .  A
C67        C1745   1.476       .  S
O68          C76   1.261       .  A
O69          C76   1.261       .  A
C70          O77   1.260       .  A
C70          O71   1.261       .  A
C70        C1943   1.476       .  S
C72          O74   1.260       .  A
C72          O78   1.260       .  A
C72        C1668   1.475       .  S
C76        C1690   1.475       .  S
In79         O81   2.255       .  S
In79         O82   2.245       .  S
In79         O90   2.250       .  S
In79         O84   2.248       .  S
In79         O86   2.246       .  S
In79         O87   2.249       .  S
In79         O88   2.245       .  S
In79         O91   2.252       .  S
C80          O86   1.261       .  A
C80          O88   1.260       .  A
C80        C1635   1.477       .  S
O81          C89   1.261       .  A
O82          C89   1.260       .  A
C83          O90   1.261       .  A
C83          O84   1.260       .  A
C83        C1613   1.477       .  S
C85          O87   1.261       .  A
C85          O91   1.261       .  A
C85        C1569   1.481       .  S
C89        C1591   1.478       .  S
In92         O94   2.251       .  S
In92         O95   2.239       .  S
In92        O103   2.239       .  S
In92         O97   2.261       .  S
In92         O99   2.251       .  S
In92        O100   2.238       .  S
In92        O101   2.245       .  S
In92        O104   2.248       .  S
C93          O99   1.261       .  A
C93         O101   1.259       .  A
C93        C1646   1.477       .  S
O94         C102   1.262       .  A
O95         C102   1.261       .  A
C96         O103   1.259       .  A
C96          O97   1.262       .  A
C96        C1558   1.479       .  S
C98         O100   1.260       .  A
C98         O104   1.262       .  A
C98        C1514   1.475       .  S
C102       C1536   1.477       .  S
In105       O107   2.255       .  S
In105       O108   2.241       .  S
In105       O116   2.238       .  S
In105       O110   2.255       .  S
In105       O112   2.264       .  S
In105       O113   2.242       .  S
In105       O114   2.241       .  S
In105       O117   2.252       .  S
C106        O112   1.262       .  A
C106        O114   1.259       .  A
C106       C1481   1.479       .  S
O107        C115   1.262       .  A
O108        C115   1.261       .  A
C109        O116   1.260       .  A
C109        O110   1.263       .  A
C109       C1547   1.478       .  S
C111        O113   1.260       .  A
C111        O117   1.261       .  A
C111       C1437   1.477       .  S
C115       C1470   1.479       .  S
In118       O120   2.250   1_545  S
In118       O121   2.246   1_545  S
In118       O129   2.246       .  S
In118       O123   2.263       .  S
In118       O125   2.254   1_545  S
In118       O126   2.241       .  S
In118       O127   2.240       .  S
In118       O130   2.244       .  S
C119        O125   1.261       .  A
C119        O127   1.259   1_565  A
C119       C1492   1.477       .  S
O120        C128   1.261       .  A
O121        C128   1.259       .  A
C122        O129   1.260       .  A
C122        O123   1.262       .  A
C122       C1426   1.482       .  S
C124        O126   1.261       .  A
C124        O130   1.262       .  A
C124       C1371   1.476       .  S
C128       C1393   1.477       .  S
In131       O133   2.250       .  S
In131       O134   2.255       .  S
In131       O142   2.255       .  S
In131       O136   2.244       .  S
In131       O138   2.245       .  S
In131       O139   2.259       .  S
In131       O140   2.248       .  S
In131       O143   2.231       .  S
C132        O138   1.261       .  A
C132        O140   1.260       .  A
C132       C1327   1.477       .  S
O133        C141   1.260       .  A
O134        C141   1.261       .  A
C135        O142   1.262       .  A
C135        O136   1.260       .  A
C135       C1305   1.479       .  S
C137        O139   1.262       .  A
C137        O143   1.258       .  A
C137       C1624   1.476       .  S
C141       C1349   1.480       .  S
In144       O146   2.250   1_554  S
In144       O147   2.250       .  S
In144       O155   2.255       .  S
In144       O149   2.250       .  S
In144       O151   2.245       .  S
In144       O152   2.258       .  S
In144       O153   2.250       .  S
In144       O156   2.255       .  S
C145        O151   1.261       .  A
C145        O153   1.261       .  A
C145       C1283   1.477       .  S
O146        C154   1.261   1_556  A
O147        C154   1.261       .  A
C148        O155   1.260       .  A
C148        O149   1.260       .  A
C148       C1272   1.479   1_545  S
C150        O152   1.260       .  A
C150        O156   1.260       .  A
C150       C1415   1.481       .  S
C154       C1360   1.480   1_554  S
In157       O159   2.254       .  S
In157       O160   2.242       .  S
In157       O168   2.245       .  S
In157       O162   2.254       .  S
In157       O164   2.265       .  S
In157       O165   2.244       .  S
In157       O166   2.242       .  S
In157       O169   2.255       .  S
C158        O164   1.261       .  A
C158        O166   1.259       .  A
C158       C1239   1.479       .  S
O159        C167   1.261       .  A
O160        C167   1.260       .  A
C161        O168   1.260       .  A
C161        O162   1.261       .  A
C161       C1217   1.478       .  S
C163        O165   1.260       .  A
C163        O169   1.261       .  A
C163       C1195   1.479       .  S
C167       C1338   1.478       .  S
In170       O172   2.248       .  S
In170       O173   2.258       .  S
In170       O181   2.260       .  S
In170       O175   2.242       .  S
In170       O177   2.238       .  S
In170       O178   2.257       .  S
In170       O179   2.251       .  S
In170       O182   2.249       .  S
C171        O177   1.259       .  A
C171        O179   1.261       .  A
C171       C1162   1.475       .  S
O172        C180   1.259       .  A
O173        C180   1.260       .  A
C174        O181   1.263       .  A
C174        O175   1.259       .  A
C174       C1789   1.481       .  S
C176        O178   1.260       .  A
C176        O182   1.260       .  A
C176       C1250   1.479       .  S
C180       C1184   1.480       .  S
In183       O185   2.248       .  S
In183       O186   2.261       .  S
In183       O194   2.256       .  S
In183       O188   2.234       .  S
In183       O190   2.244       .  S
In183       O191   2.247       .  S
In183       O192   2.249       .  S
In183       O195   2.238       .  S
C184        O190   1.260       .  A
C184        O192   1.262       .  A
C184       C1976   1.477       .  S
O185        C193   1.260       .  A
O186        C193   1.262       .  A
C187        O194   1.260       .  A
C187        O188   1.259       .  A
C187       C1107   1.476       .  S
C189        O191   1.263       .  A
C189        O195   1.260       .  A
C189       C1140   1.475       .  S
C193       C1173   1.481       .  S
In196       O198   2.245       .  S
In196       O199   2.240       .  S
In196       O207   2.255       .  S
In196       O201   2.254       .  S
In196       O203   2.248       .  S
In196       O204   2.231       .  S
In196       O205   2.244       .  S
In196       O208   2.257       .  S
C197        O203   1.261       .  A
C197        O205   1.259       .  A
C197       C1129   1.475   1_556  S
O198        C206   1.261       .  A
O199        C206   1.260       .  A
C200        O207   1.260       .  A
C200        O201   1.260       .  A
C200       C1096   1.482       .  S
C202        O204   1.259       .  A
C202        O208   1.262       .  A
C202       C1701   1.475       .  S
C206       C1294   1.474   1_455  S
In209       O211   2.245       .  S
In209       O212   2.264       .  S
In209       O220   2.262       .  S
In209       O214   2.231       .  S
In209       O216   2.240   1_455  S
In209       O217   2.253       .  S
In209       O218   2.253   1_455  S
In209       O221   2.247       .  S
C210        O216   1.258       .  A
C210        O218   1.260       .  A
C210       C1382   1.475       .  S
O211        C219   1.260       .  A
O212        C219   1.262       .  A
C213        O220   1.263       .  A
C213        O214   1.259       .  A
C213       C1833   1.477       .  S
C215        O217   1.260       .  A
C215        O221   1.259       .  A
C215       C1063   1.477       .  S
C219       C1085   1.481       .  S
In222       O224   2.247       .  S
In222       O225   2.251       .  S
In222       O233   2.250       .  S
In222       O227   2.232       .  S
In222       O229   2.247       .  S
In222       O230   2.243       .  S
In222       O231   2.247       .  S
In222       O234   2.248       .  S
C223        O229   1.260       .  A
C223        O231   1.261       .  A
C223       C1580   1.478       .  S
O224        C232   1.260       .  A
O225        C232   1.260       .  A
C226        O233   1.262       .  A
C226        O227   1.260       .  A
C226       C1041   1.474       .  S
C228        O230   1.260       .  A
C228        O234   1.261       .  A
C228       C1074   1.477       .  S
C232       C1228   1.477       .  S
In235       O237   2.239       .  S
In235       O238   2.254       .  S
In235       O246   2.246       .  S
In235       O240   2.249       .  S
In235       O242   2.247       .  S
In235       O243   2.249       .  S
In235       O244   2.239       .  S
In235       O247   2.247       .  S
C236        O242   1.262       .  A
C236        O244   1.261       .  A
C236       C1910   1.476       .  S
O237        C245   1.260       .  A
O238        C245   1.261       .  A
C239        O246   1.261       .  A
C239        O240   1.261       .  A
C239       C1602   1.478       .  S
C241        O243   1.261       .  A
C241        O247   1.260       .  A
C241       C1030   1.478       .  S
C245        C997   1.477       .  S
In248       O250   2.246       .  S
In248       O251   2.235       .  S
In248       O259   2.254       .  S
In248       O253   2.259       .  S
In248       O255   2.256       .  S
In248       O256   2.247       .  S
In248       O257   2.249       .  S
In248       O260   2.256       .  S
C249        O255   1.262       .  A
C249        O257   1.260       .  A
C249       C1019   1.480       .  S
O250        C258   1.262       .  A
O251        C258   1.260       .  A
C252        O259   1.259       .  A
C252        O253   1.260       .  A
C252        C986   1.480       .  S
C254        O256   1.259       .  A
C254        O260   1.261       .  A
C254       C1822   1.479       .  S
C258        C964   1.474       .  S
In261       O263   2.244       .  S
In261       O264   2.255       .  S
In261       O272   2.247       .  S
In261       O266   2.246       .  S
In261       O268   2.249       .  S
In261       O269   2.245       .  S
In261       O270   2.252       .  S
In261       O273   2.235       .  S
C262        O268   1.260       .  A
C262        O270   1.261       .  A
C262       C1316   1.479       .  S
O263        C271   1.260       .  A
O264        C271   1.260       .  A
C265        O272   1.260       .  A
C265        O266   1.260       .  A
C265       C1679   1.475       .  S
C267        O269   1.262       .  A
C267        O273   1.261       .  A
C267        C942   1.474       .  S
C271       C1008   1.478       .  S
In274       O276   2.239       .  S
In274       O277   2.243       .  S
In274       O285   2.243       .  S
In274       O279   2.245       .  S
In274       O281   2.239       .  S
In274       O282   2.243       .  S
In274       O283   2.239       .  S
In274       O286   2.250       .  S
C275        O281   1.260       .  A
C275        O283   1.258       .  A
C275        C931   1.472       .  S
O276        C284   1.261       .  A
O277        C284   1.262       .  A
C278        O285   1.262       .  A
C278        O279   1.261       .  A
C278        C920   1.477       .  S
C280        O282   1.260       .  A
C280        O286   1.260       .  A
C280       C1448   1.477       .  S
C284        C898   1.474       .  S
In287       O289   2.251       .  S
In287       O290   2.256       .  S
In287       O298   2.248       .  S
In287       O292   2.253       .  S
In287       O294   2.249       .  S
In287       O295   2.255       .  S
In287       O296   2.250       .  S
In287       O299   2.244       .  S
C288        O294   1.262       .  A
C288        O296   1.261       .  A
C288        C843   1.480       .  S
O289        C297   1.260       .  A
O290        C297   1.260       .  A
C291        O298   1.260       .  A
C291        O292   1.261       .  A
C291       C1525   1.479       .  S
C293        O295   1.261       .  A
C293        O299   1.260       .  A
C293        C876   1.479       .  S
C297        C909   1.479       .  S
In300       O302   2.244       .  S
In300       O303   2.259       .  S
In300       O311   2.255       .  S
In300       O305   2.235       .  S
In300       O307   2.235   1_545  S
In300       O308   2.255       .  S
In300       O309   2.252   1_545  S
In300       O312   2.250   1_556  S
C301        O307   1.260       .  A
C301        O309   1.262       .  A
C301        C832   1.476       .  S
O302        C310   1.259       .  A
O303        C310   1.262       .  A
C304        O311   1.262       .  A
C304        O305   1.259       .  A
C304       C1723   1.476       .  S
C306        O308   1.262       .  A
C306        O312   1.260   1_556  A
C306        C865   1.481   1_556  S
C310        C975   1.479       .  S
In313       O315   2.248       .  S
In313       O316   2.252       .  S
In313       O324   2.250       .  S
In313       O318   2.252       .  S
In313       O320   2.244       .  S
In313       O321   2.244       .  S
In313       O322   2.242       .  S
In313       O325   2.250       .  S
C314        O320   1.261       .  A
C314        O322   1.260       .  A
C314        C799   1.474       .  S
O315        C323   1.261       .  A
O316        C323   1.261       .  A
C317        O324   1.260       .  A
C317        O318   1.260       .  A
C317        C788   1.479       .  S
C319        O321   1.261       .  A
C319        O325   1.260       .  A
C319        C854   1.477       .  S
C323       C1118   1.478       .  S
In326       O328   2.238       .  S
In326       O329   2.239       .  S
In326       O337   2.251       .  S
In326       O331   2.237       .  S
In326       O333   2.236       .  S
In326       O334   2.249       .  S
In326       O335   2.243       .  S
In326       O338   2.236       .  S
C327        O333   1.261       .  A
C327        O335   1.261       .  A
C327       C1052   1.474       .  S
O328        C336   1.260       .  A
O329        C336   1.261       .  A
C330        O337   1.261       .  A
C330        O331   1.260       .  A
C330        C733   1.476       .  S
C332        O334   1.261       .  A
C332        O338   1.259       .  A
C332        C755   1.475       .  S
C336        C810   1.472       .  S
In339       O341   2.246       .  S
In339       O342   2.249       .  S
In339       O350   2.251       .  S
In339       O344   2.242       .  S
In339       O346   2.245       .  S
In339       O347   2.252       .  S
In339       O348   2.248       .  S
In339       O351   2.240       .  S
C340        O346   1.261       .  A
C340        O348   1.260       .  A
C340        C953   1.476       .  S
O341        C349   1.259       .  A
O342        C349   1.261       .  A
C343        O350   1.261       .  A
C343        O344   1.261       .  A
C343        C667   1.478   1_455  S
C345        O347   1.262       .  A
C345        O351   1.260       .  A
C345        C689   1.478       .  S
C349        C711   1.477       .  S
In352       O354   2.244       .  S
In352       O355   2.251       .  S
In352       O363   2.244       .  S
In352       O357   2.245       .  S
In352       O359   2.243       .  S
In352       O360   2.253       .  S
In352       O361   2.244       .  S
In352       O364   2.240       .  S
C353        O359   1.261       .  A
C353        O361   1.261       .  A
C353        C887   1.475       .  S
O354        C362   1.260       .  A
O355        C362   1.261       .  A
C356        O363   1.261       .  A
C356        O357   1.260       .  A
C356       C1151   1.476       .  S
C358        O360   1.260       .  A
C358        O364   1.260       .  A
C358        C777   1.476       .  S
C362        C722   1.477       .  S
In365       O367   2.247   1_455  S
In365       O368   2.246   1_455  S
In365       O376   2.242       .  S
In365       O370   2.259       .  S
In365       O372   2.244   1_455  S
In365       O373   2.243       .  S
In365       O374   2.241   1_454  S
In365       O377   2.251       .  S
C366        O372   1.262       .  A
C366        O374   1.260   1_554  A
C366        C656   1.476   1_554  S
O367        C375   1.261       .  A
O368        C375   1.262       .  A
C369        O376   1.259       .  A
C369        O370   1.261       .  A
C369        C700   1.479       .  S
C371        O373   1.261       .  A
C371        O377   1.260       .  A
C371        C821   1.477       .  S
C375        C623   1.478       .  S
In378       O380   2.245       .  S
In378       O381   2.251       .  S
In378       O389   2.257       .  S
In378       O383   2.247       .  S
In378       O385   2.231       .  S
In378       O386   2.257       .  S
In378       O387   2.255       .  S
In378       O390   2.245       .  S
C379        O385   1.260       .  A
C379        O387   1.262       .  A
C379        C612   1.475       .  S
O380        C388   1.260       .  A
O381        C388   1.261       .  A
C382        O389   1.261       .  A
C382        O383   1.259       .  A
C382       C1206   1.480       .  S
C384        O386   1.261       .  A
C384        O390   1.259       .  A
C384        C766   1.478       .  S
C388        C645   1.477       .  S
In391       O393   2.249       .  S
In391       O394   2.260       .  S
In391       O402   2.243       .  S
In391       O396   2.241       .  S
In391       O398   2.243       .  S
In391       O399   2.258       .  S
In391       O400   2.257       .  S
In391       O403   2.238       .  S
C392        O398   1.259       .  A
C392        O400   1.262       .  A
C392       C1657   1.478       .  S
O393        C401   1.260       .  A
O394        C401   1.261       .  A
C395        O402   1.261       .  A
C395        O396   1.261       .  A
C395        C601   1.475       .  S
C397        O399   1.262       .  A
C397        O403   1.259       .  A
C397        C579   1.478       .  S
C401        C557   1.481       .  S
In404       O406   2.244       .  S
In404       O407   2.265       .  S
In404       O415   2.256       .  S
In404       O409   2.241       .  S
In404       O411   2.242       .  S
In404       O412   2.259       .  S
In404       O413   2.252       .  S
In404       O416   2.243       .  S
C405        O411   1.260       .  A
C405        O413   1.262       .  A
C405       C1767   1.478       .  S
O406        C414   1.258       .  A
O407        C414   1.261       .  A
C408        O415   1.262       .  A
C408        O409   1.260       .  A
C408       C1459   1.478       .  S
C410        O412   1.262       .  A
C410        O416   1.260       .  A
C410        C590   1.479       .  S
C414        C535   1.480       .  S
In417       O419   2.243       .  S
In417       O420   2.239       .  S
In417       O428   2.247       .  S
In417       O422   2.247       .  S
In417       O424   2.247       .  S
In417       O425   2.232       .  S
In417       O426   2.242       .  S
In417       O429   2.260       .  S
C418        O424   1.260       .  A
C418        O426   1.259       .  A
C418        C513   1.474       .  S
O419        C427   1.261       .  A
O420        C427   1.260       .  A
C421        O428   1.260       .  A
C421        O422   1.260       .  A
C421        C546   1.477       .  S
C423        O425   1.258       .  A
C423        O429   1.261       .  A
C423       C1503   1.476       .  S
C427       C1987   1.474       .  S
In430       O432   2.246       .  S
In430       O433   2.252       .  S
In430       O441   2.254       .  S
In430       O435   2.240       .  S
In430       O437   2.244       .  S
In430       O438   2.243       .  S
In430       O439   2.249       .  S
In430       O442   2.240   1_556  S
C431        O437   1.260       .  A
C431        O439   1.261       .  A
C431       C1261   1.477       .  S
O432        C440   1.260       .  A
O433        C440   1.260       .  A
C434        O441   1.261       .  A
C434        O435   1.260       .  A
C434        C634   1.477       .  S
C436        O438   1.261       .  A
C436        O442   1.260   1_556  A
C436        C524   1.474   1_556  S
C440        C502   1.478       .  S
In443       O445   2.252       .  S
In443       O446   2.242       .  S
In443       O454   2.249       .  S
In443       O448   2.255       .  S
In443       O450   2.251       .  S
In443       O451   2.246       .  S
In443       O452   2.251       .  S
In443       O455   2.244       .  S
C444        O450   1.260       .  A
C444        O452   1.260       .  A
C444        C469   1.479       .  S
O445        C453   1.261       .  A
O446        C453   1.259       .  A
C447        O454   1.260       .  A
C447        O448   1.260       .  A
C447        C568   1.479       .  S
C449        O451   1.261       .  A
C449        O455   1.261       .  A
C449        C744   1.477       .  S
C453       C1932   1.477       .  S
In456       O458   2.238       .  S
In456       O459   2.267       .  S
In456       O467   2.253       .  S
In456       O461   2.242       .  S
In456       O463   2.243       .  S
In456       O464   2.255       .  S
In456       O465   2.256       .  S
In456       O468   2.242       .  S
C457        O463   1.259       .  A
C457        O465   1.261       .  A
C457        C678   1.478       .  S
O458        C466   1.260       .  A
O459        C466   1.263       .  A
C460        O467   1.261       .  A
C460        O461   1.259       .  A
C460       C1404   1.476       .  S
C462        O464   1.263       .  A
C462        O468   1.260       .  A
C462        C480   1.480       .  S
C466        C491   1.481       .  S
C469        C470   1.406       .  A
C469        C474   1.406       .  A
C470        C471   1.400       .  A
C470        H483   1.083       .  S
C471        C472   1.401       .  A
C471        H484   1.083       .  S
C472        C473   1.400       .  A
C472        C475   1.442       .  S
C473        C474   1.399       .  A
C473        H485   1.084       .  S
C474        H486   1.083       .  S
C475        C476   1.208       .  T
C476        C477   1.442       .  S
C477        C478   1.401       .  A
C477        C482   1.400       .  A
C478        C479   1.400       .  A
C478        H487   1.083       .  S
C479        C480   1.405       .  A
C479        H488   1.083       .  S
C480        C481   1.407       .  A
C481        C482   1.400       .  A
C481        H489   1.083       .  S
C482        H490   1.084       .  S
C491        C492   1.407       .  A
C491        C496   1.406       .  A
C492        C493   1.403       .  A
C492        H505   1.083       .  S
C493        C494   1.402       .  A
C493        H506   1.083       .  S
C494        C495   1.399       .  A
C494        C497   1.442       .  S
C495        C496   1.396       .  A
C495        H507   1.084       .  S
C496        H508   1.083       .  S
C497        C498   1.207       .  T
C498        C499   1.442       .  S
C499        C500   1.400       .  A
C499        C504   1.401       .  A
C500        C501   1.398       .  A
C500        H509   1.084       .  S
C501        C502   1.405       .  A
C501        H510   1.083       .  S
C502        C503   1.407       .  A
C503        C504   1.401       .  A
C503        H511   1.083       .  S
C504        H512   1.083       .  S
C513        C514   1.405       .  A
C513        C518   1.406       .  A
C514        C515   1.397       .  A
C514        H527   1.083       .  S
C515        C516   1.399       .  A
C515        H528   1.083       .  S
C516        C517   1.399       .  A
C516        C519   1.436       .  S
C517        C518   1.397       .  A
C517        H529   1.084       .  S
C518        H530   1.083       .  S
C519        C520   1.204       .  T
C520        C521   1.436       .  S
C521        C522   1.399       .  A
C521        C526   1.399       .  A
C522        C523   1.397       .  A
C522        H531   1.083       .  S
C523        C524   1.405       .  A
C523        H532   1.083   1_554  S
C524        C525   1.405       .  A
C525        C526   1.397       .  A
C525        H533   1.083       .  S
C526        H534   1.084       .  S
C535        C536   1.406       .  A
C535        C540   1.407       .  A
C536        C537   1.397       .  A
C536        H549   1.083       .  S
C537        C538   1.399       .  A
C537        H550   1.084       .  S
C538        C539   1.401       .  A
C538        C541   1.442       .  S
C539        C540   1.402       .  A
C539        H551   1.083       .  S
C540        H552   1.083       .  S
C541        C542   1.207       .  T
C542        C543   1.441       .  S
C543        C544   1.400       .  A
C543        C548   1.400       .  A
C544        C545   1.399       .  A
C544        H553   1.083       .  S
C545        C546   1.406       .  A
C545        H554   1.083       .  S
C546        C547   1.406       .  A
C547        C548   1.399       .  A
C547        H555   1.083       .  S
C548        H556   1.083       .  S
C557        C558   1.407       .  A
C557        C562   1.406       .  A
C558        C559   1.402   1_556  A
C558        H571   1.083       .  S
C559        C560   1.401       .  A
C559        H572   1.083       .  S
C560        C561   1.400       .  A
C560        C563   1.443       .  S
C561        C562   1.398   1_554  A
C561        H573   1.084       .  S
C562        H574   1.083       .  S
C563        C564   1.208       .  T
C564        C565   1.442       .  S
C565        C566   1.400       .  A
C565        C570   1.401       .  A
C566        C567   1.399       .  A
C566        H575   1.084       .  S
C567        C568   1.406       .  A
C567        H576   1.083       .  S
C568        C569   1.406       .  A
C569        C570   1.400       .  A
C569        H577   1.083       .  S
C570        H578   1.083       .  S
C579        C580   1.406       .  A
C579        C584   1.406       .  A
C580        C581   1.400       .  A
C580        H593   1.083       .  S
C581        C582   1.401       .  A
C581        H594   1.083       .  S
C582        C583   1.399       .  A
C582        C585   1.441       .  S
C583        C584   1.398       .  A
C583        H595   1.084       .  S
C584        H596   1.083       .  S
C585        C586   1.207       .  T
C586        C587   1.441       .  S
C587        C588   1.401       .  A
C587        C592   1.399       .  A
C588        C589   1.401       .  A
C588        H597   1.083       .  S
C589        C590   1.406       .  A
C589        H598   1.083       .  S
C590        C591   1.407       .  A
C591        C592   1.398       .  A
C591        H599   1.083       .  S
C592        H600   1.084       .  S
C601        C602   1.406       .  A
C601        C606   1.406       .  A
C602        C603   1.398       .  A
C602        H615   1.083       .  S
C603        C604   1.399       .  A
C603        H616   1.083       .  S
C604        C605   1.400       .  A
C604        C607   1.438       .  S
C605        C606   1.398       .  A
C605        H617   1.084       .  S
C606        H618   1.083       .  S
C607        C608   1.205       .  T
C608        C609   1.438       .  S
C609        C610   1.398       .  A
C609        C614   1.401       .  A
C610        C611   1.395       .  A
C610        H619   1.084       .  S
C611        C612   1.405       .  A
C611        H620   1.083       .  S
C612        C613   1.407       .  A
C613        C614   1.401       .  A
C613        H621   1.083       .  S
C614        H622   1.084       .  S
C623        C624   1.407       .  A
C623        C628   1.405       .  A
C624        C625   1.400       .  A
C624        H637   1.083       .  S
C625        C626   1.400       .  A
C625        H638   1.083       .  S
C626        C627   1.400       .  A
C626        C629   1.441       .  S
C627        C628   1.398       .  A
C627        H639   1.084   1_554  S
C628        H640   1.083   1_554  S
C629        C630   1.207       .  T
C630        C631   1.441       .  S
C631        C632   1.399       .  A
C631        C636   1.401   1_554  A
C632        C633   1.397   1_554  A
C632        H641   1.083       .  S
C633        C634   1.406       .  A
C633        H642   1.083       .  S
C634        C635   1.406       .  A
C635        C636   1.401       .  A
C635        H643   1.083       .  S
C636        H644   1.084       .  S
C645        C646   1.407       .  A
C645        C650   1.405       .  A
C646        C647   1.399       .  A
C646        H659   1.083       .  S
C647        C648   1.400       .  A
C647        H660   1.084       .  S
C648        C649   1.400       .  A
C648        C651   1.440       .  S
C649        C650   1.399       .  A
C649        H661   1.083       .  S
C650        H662   1.083       .  S
C651        C652   1.206       .  T
C652        C653   1.439       .  S
C653        C654   1.400       .  A
C653        C658   1.399       .  A
C654        C655   1.399       .  A
C654        H663   1.084       .  S
C655        C656   1.407       .  A
C655        H664   1.083       .  S
C656        C657   1.405       .  A
C657        C658   1.398       .  A
C657        H665   1.083   1_556  S
C658        H666   1.083       .  S
C667        C668   1.407       .  A
C667        C672   1.405       .  A
C668        C669   1.401       .  A
C668        H681   1.083       .  S
C669        C670   1.401       .  A
C669        H682   1.083       .  S
C670        C671   1.399       .  A
C670        C673   1.442       .  S
C671        C672   1.398       .  A
C671        H683   1.084       .  S
C672        H684   1.083   1_655  S
C673        C674   1.207       .  T
C674        C675   1.442       .  S
C675        C676   1.400       .  A
C675        C680   1.400       .  A
C676        C677   1.400       .  A
C676        H685   1.083       .  S
C677        C678   1.406       .  A
C677        H686   1.083       .  S
C678        C679   1.407       .  A
C679        C680   1.399       .  A
C679        H687   1.083       .  S
C680        H688   1.083       .  S
C689        C690   1.406       .  A
C689        C694   1.406       .  A
C690        C691   1.398       .  A
C690        H703   1.083       .  S
C691        C692   1.400       .  A
C691        H704   1.084       .  S
C692        C693   1.401       .  A
C692        C695   1.441       .  S
C693        C694   1.400       .  A
C693        H705   1.083       .  S
C694        H706   1.083       .  S
C695        C696   1.207       .  T
C696        C697   1.441       .  S
C697        C698   1.401       .  A
C697        C702   1.399       .  A
C698        C699   1.401       .  A
C698        H707   1.083       .  S
C699        C700   1.406       .  A
C699        H708   1.083       .  S
C700        C701   1.406       .  A
C701        C702   1.398       .  A
C701        H709   1.083   1_455  S
C702        H710   1.084       .  S
C711        C712   1.405       .  A
C711        C716   1.406       .  A
C712        C713   1.398       .  A
C712        H725   1.083       .  S
C713        C714   1.400       .  A
C713        H726   1.083       .  S
C714        C715   1.400       .  A
C714        C717   1.440       .  S
C715        C716   1.399       .  A
C715        H727   1.084       .  S
C716        H728   1.083       .  S
C717        C718   1.206       .  T
C718        C719   1.440       .  S
C719        C720   1.400       .  A
C719        C724   1.400       .  A
C720        C721   1.399       .  A
C720        H729   1.083       .  S
C721        C722   1.406       .  A
C721        H730   1.083       .  S
C722        C723   1.406       .  A
C723        C724   1.398       .  A
C723        H731   1.083       .  S
C724        H732   1.084       .  S
C733        C734   1.407       .  A
C733        C738   1.405       .  A
C734        C735   1.401       .  A
C734        H747   1.083       .  S
C735        C736   1.401       .  A
C735        H748   1.083       .  S
C736        C737   1.399       .  A
C736        C739   1.439       .  S
C737        C738   1.396       .  A
C737        H749   1.084       .  S
C738        H750   1.083       .  S
C739        C740   1.206       .  T
C740        C741   1.439       .  S
C741        C742   1.400       .  A
C741        C746   1.399       .  A
C742        C743   1.398       .  A
C742        H751   1.084       .  S
C743        C744   1.406       .  A
C743        H752   1.083       .  S
C744        C745   1.406       .  A
C745        C746   1.398       .  A
C745        H753   1.083       .  S
C746        H754   1.083       .  S
C755        C756   1.406       .  A
C755        C760   1.406       .  A
C756        C757   1.399       .  A
C756        H769   1.083       .  S
C757        C758   1.400       .  A
C757        H770   1.083       .  S
C758        C759   1.399       .  A
C758        C761   1.439       .  S
C759        C760   1.397       .  A
C759        H771   1.084       .  S
C760        H772   1.083       .  S
C761        C762   1.206       .  T
C762        C763   1.439       .  S
C763        C764   1.399       .  A
C763        C768   1.400       .  A
C764        C765   1.397       .  A
C764        H773   1.084       .  S
C765        C766   1.406       .  A
C765        H774   1.083       .  S
C766        C767   1.407       .  A
C767        C768   1.400       .  A
C767        H775   1.083       .  S
C768        H776   1.083       .  S
C777        C778   1.407       .  A
C777        C782   1.405       .  A
C778        C779   1.401       .  A
C778        H791   1.083       .  S
C779        C780   1.401       .  A
C779        H792   1.083       .  S
C780        C781   1.399       .  A
C780        C783   1.440       .  S
C781        C782   1.396       .  A
C781        H793   1.084       .  S
C782        H794   1.083       .  S
C783        C784   1.206       .  T
C784        C785   1.441       .  S
C785        C786   1.400       .  A
C785        C790   1.400       .  A
C786        C787   1.398       .  A
C786        H795   1.084       .  S
C787        C788   1.406   1_556  A
C787        H796   1.083       .  S
C788        C789   1.407   1_554  A
C789        C790   1.400       .  A
C789        H797   1.083   1_556  S
C790        H798   1.083       .  S
C799        C800   1.406       .  A
C799        C804   1.405       .  A
C800        C801   1.397       .  A
C800        H813   1.083       .  S
C801        C802   1.399       .  A
C801        H814   1.084       .  S
C802        C803   1.399       .  A
C802        C805   1.435       .  S
C803        C804   1.397       .  A
C803        H815   1.083       .  S
C804        H816   1.083       .  S
C805        C806   1.203       .  T
C806        C807   1.435       .  S
C807        C808   1.399   1_455  A
C807        C812   1.399       .  A
C808        C809   1.397       .  A
C808        H817   1.084       .  S
C809        C810   1.406       .  A
C809        H818   1.083       .  S
C810        C811   1.405       .  A
C811        C812   1.396   1_655  A
C811        H819   1.083   1_655  S
C812        H820   1.083       .  S
C821        C822   1.407       .  A
C821        C826   1.405       .  A
C822        C823   1.400       .  A
C822        H835   1.083       .  S
C823        C824   1.401       .  A
C823        H836   1.083       .  S
C824        C825   1.399       .  A
C824        C827   1.440   1_554  S
C825        C826   1.397       .  A
C825        H837   1.083       .  S
C826        H838   1.083       .  S
C827        C828   1.206       .  T
C828        C829   1.440       .  S
C829        C830   1.399   1_556  A
C829        C834   1.401       .  A
C830        C831   1.397   1_554  A
C830        H839   1.084       .  S
C831        C832   1.406       .  A
C831        H840   1.083   1_556  S
C832        C833   1.406       .  A
C833        C834   1.400       .  A
C833        H841   1.083       .  S
C834        H842   1.083       .  S
C843        C844   1.406       .  A
C843        C848   1.407       .  A
C844        C845   1.399       .  A
C844        H857   1.083       .  S
C845        C846   1.400       .  A
C845        H858   1.084       .  S
C846        C847   1.400       .  A
C846        C849   1.441       .  S
C847        C848   1.400       .  A
C847        H859   1.083       .  S
C848        H860   1.083       .  S
C849        C850   1.207       .  T
C850        C851   1.441       .  S
C851        C852   1.401       .  A
C851        C856   1.400       .  A
C852        C853   1.400       .  A
C852        H861   1.083       .  S
C853        C854   1.406       .  A
C853        H862   1.083       .  S
C854        C855   1.405       .  A
C855        C856   1.398       .  A
C855        H863   1.083       .  S
C856        H864   1.083       .  S
C865        C866   1.408       .  A
C865        C870   1.406   1_545  A
C866        C867   1.401   1_545  A
C866        H879   1.083       .  S
C867        C868   1.401       .  A
C867        H880   1.083       .  S
C868        C869   1.400       .  A
C868        C871   1.444       .  S
C869        C870   1.400       .  A
C869        H881   1.083       .  S
C870        H882   1.083   1_554  S
C871        C872   1.208       .  T
C872        C873   1.443       .  S
C873        C874   1.400       .  A
C873        C878   1.401       .  A
C874        C875   1.399       .  A
C874        H883   1.084       .  S
C875        C876   1.406       .  A
C875        H884   1.083       .  S
C876        C877   1.406       .  A
C877        C878   1.401       .  A
C877        H885   1.083       .  S
C878        H886   1.083       .  S
C887        C888   1.405       .  A
C887        C892   1.406       .  A
C888        C889   1.398       .  A
C888        H901   1.083       .  S
C889        C890   1.399       .  A
C889        H902   1.083       .  S
C890        C891   1.400       .  A
C890        C893   1.437       .  S
C891        C892   1.398       .  A
C891        H903   1.084       .  S
C892        H904   1.083       .  S
C893        C894   1.205       .  T
C894        C895   1.437       .  S
C895        C896   1.400       .  A
C895        C900   1.399       .  A
C896        C897   1.398       .  A
C896        H905   1.083       .  S
C897        C898   1.405       .  A
C897        H906   1.083       .  S
C898        C899   1.406       .  A
C899        C900   1.398       .  A
C899        H907   1.083       .  S
C900        H908   1.084       .  S
C909        C910   1.407       .  A
C909        C914   1.406       .  A
C910        C911   1.400       .  A
C910        H923   1.083       .  S
C911        C912   1.400       .  A
C911        H924   1.083       .  S
C912        C913   1.400       .  A
C912        C915   1.442       .  S
C913        C914   1.399       .  A
C913        H925   1.084       .  S
C914        H926   1.083       .  S
C915        C916   1.207       .  T
C916        C917   1.441       .  S
C917        C918   1.400       .  A
C917        C922   1.401       .  A
C918        C919   1.398       .  A
C918        H927   1.084       .  S
C919        C920   1.405       .  A
C919        H928   1.083       .  S
C920        C921   1.407       .  A
C921        C922   1.400       .  A
C921        H929   1.083       .  S
C922        H930   1.083       .  S
C931        C932   1.404       .  A
C931        C936   1.406       .  A
C932        C933   1.396   1_565  A
C932        H945   1.083   1_565  S
C933        C934   1.399       .  A
C933        H946   1.083       .  S
C934        C935   1.399   1_545  A
C934        C937   1.435       .  S
C935        C936   1.397       .  A
C935        H947   1.084       .  S
C936        H948   1.083       .  S
C937        C938   1.203       .  T
C938        C939   1.435       .  S
C939        C940   1.400       .  A
C939        C944   1.398       .  A
C940        C941   1.399       .  A
C940        H949   1.083       .  S
C941        C942   1.406       .  A
C941        H950   1.083       .  S
C942        C943   1.405       .  A
C943        C944   1.396       .  A
C943        H951   1.083       .  S
C944        H952   1.084       .  S
C953        C954   1.406       .  A
C953        C958   1.405       .  A
C954        C955   1.399       .  A
C954        H967   1.083       .  S
C955        C956   1.399       .  A
C955        H968   1.083       .  S
C956        C957   1.399       .  A
C956        C959   1.437       .  S
C957        C958   1.397       .  A
C957        H969   1.084       .  S
C958        H970   1.083       .  S
C959        C960   1.204       .  T
C960        C961   1.437       .  S
C961        C962   1.399       .  A
C961        C966   1.400       .  A
C962        C963   1.396       .  A
C962        H971   1.084       .  S
C963        C964   1.406   1_565  A
C963        H972   1.083   1_565  S
C964        C965   1.405   1_545  A
C965        C966   1.398       .  A
C965        H973   1.083       .  S
C966        H974   1.083       .  S
C975        C976   1.406       .  A
C975        C980   1.407       .  A
C976        C977   1.400       .  A
C976        H989   1.083       .  S
C977        C978   1.401       .  A
C977        H990   1.083       .  S
C978        C979   1.400       .  A
C978        C981   1.442       .  S
C979        C980   1.399       .  A
C979        H991   1.084       .  S
C980        H992   1.083       .  S
C981        C982   1.207       .  T
C982        C983   1.442       .  S
C983        C984   1.400       .  A
C983        C988   1.401       .  A
C984        C985   1.399       .  A
C984        H993   1.084       .  S
C985        C986   1.406       .  A
C985        H994   1.083       .  S
C986        C987   1.407       .  A
C987        C988   1.400       .  A
C987        H995   1.083       .  S
C988        H996   1.083       .  S
C997        C998   1.405       .  A
C997       C1002   1.407       .  A
C998        C999   1.396       .  A
C998       H1011   1.083       .  S
C999       C1000   1.399       .  A
C999       H1012   1.084       .  S
C1000      C1001   1.401       .  A
C1000      C1003   1.441       .  S
C1001      C1002   1.401       .  A
C1001      H1013   1.083       .  S
C1002      H1014   1.083       .  S
C1003      C1004   1.206       .  T
C1004      C1005   1.441       .  S
C1005      C1006   1.401       .  A
C1005      C1010   1.399       .  A
C1006      C1007   1.402   1_554  A
C1006      H1015   1.083       .  S
C1007      C1008   1.407       .  A
C1007      H1016   1.083       .  S
C1008      C1009   1.405       .  A
C1009      C1010   1.396   1_556  A
C1009      H1017   1.083       .  S
C1010      H1018   1.084       .  S
C1019      C1020   1.407       .  A
C1019      C1024   1.406       .  A
C1020      C1021   1.400       .  A
C1020      H1033   1.083       .  S
C1021      C1022   1.400       .  A
C1021      H1034   1.084       .  S
C1022      C1023   1.401       .  A
C1022      C1025   1.443       .  S
C1023      C1024   1.400       .  A
C1023      H1035   1.083       .  S
C1024      H1036   1.083       .  S
C1025      C1026   1.208       .  T
C1026      C1027   1.442       .  S
C1027      C1028   1.400       .  A
C1027      C1032   1.401       .  A
C1028      C1029   1.399       .  A
C1028      H1037   1.084       .  S
C1029      C1030   1.406       .  A
C1029      H1038   1.083       .  S
C1030      C1031   1.406       .  A
C1031      C1032   1.400       .  A
C1031      H1039   1.083       .  S
C1032      H1040   1.083       .  S
C1041      C1042   1.405       .  A
C1041      C1046   1.406       .  A
C1042      C1043   1.399       .  A
C1042      H1055   1.083       .  S
C1043      C1044   1.400       .  A
C1043      H1056   1.083       .  S
C1044      C1045   1.398       .  A
C1044      C1047   1.436       .  S
C1045      C1046   1.396       .  A
C1045      H1057   1.084       .  S
C1046      H1058   1.083       .  S
C1047      C1048   1.204       .  T
C1048      C1049   1.436       .  S
C1049      C1050   1.399       .  A
C1049      C1054   1.399       .  A
C1050      C1051   1.396       .  A
C1050      H1059   1.083       .  S
C1051      C1052   1.405       .  A
C1051      H1060   1.083       .  S
C1052      C1053   1.406       .  A
C1053      C1054   1.398       .  A
C1053      H1061   1.083       .  S
C1054      H1062   1.084       .  S
C1063      C1064   1.405   1_455  A
C1063      C1068   1.407       .  A
C1064      C1065   1.398       .  A
C1064      H1077   1.083       .  S
C1065      C1066   1.400       .  A
C1065      H1078   1.084       .  S
C1066      C1067   1.400       .  A
C1066      C1069   1.440       .  S
C1067      C1068   1.399   1_655  A
C1067      H1079   1.083   1_655  S
C1068      H1080   1.083       .  S
C1069      C1070   1.206       .  T
C1070      C1071   1.440       .  S
C1071      C1072   1.400       .  A
C1071      C1076   1.400       .  A
C1072      C1073   1.399       .  A
C1072      H1081   1.083       .  S
C1073      C1074   1.406       .  A
C1073      H1082   1.083       .  S
C1074      C1075   1.406       .  A
C1075      C1076   1.398       .  A
C1075      H1083   1.083       .  S
C1076      H1084   1.084       .  S
C1085      C1086   1.407       .  A
C1085      C1090   1.406       .  A
C1086      C1087   1.403       .  A
C1086      H1099   1.083       .  S
C1087      C1088   1.402       .  A
C1087      H1100   1.083       .  S
C1088      C1089   1.400       .  A
C1088      C1091   1.445       .  S
C1089      C1090   1.399       .  A
C1089      H1101   1.084       .  S
C1090      H1102   1.083       .  S
C1091      C1092   1.209       .  T
C1092      C1093   1.445       .  S
C1093      C1094   1.401       .  A
C1093      C1098   1.401       .  A
C1094      C1095   1.401       .  A
C1094      H1103   1.083       .  S
C1095      C1096   1.406       .  A
C1095      H1104   1.083       .  S
C1096      C1097   1.407       .  A
C1097      C1098   1.401       .  A
C1097      H1105   1.083       .  S
C1098      H1106   1.083       .  S
C1107      C1108   1.407       .  A
C1107      C1112   1.405       .  A
C1108      C1109   1.401       .  A
C1108      H1121   1.083       .  S
C1109      C1110   1.402       .  A
C1109      H1122   1.083       .  S
C1110      C1111   1.398       .  A
C1110      C1113   1.440       .  S
C1111      C1112   1.395       .  A
C1111      H1123   1.084       .  S
C1112      H1124   1.083       .  S
C1113      C1114   1.206       .  T
C1114      C1115   1.440       .  S
C1115      C1116   1.401       .  A
C1115      C1120   1.399       .  A
C1116      C1117   1.400       .  A
C1116      H1125   1.084       .  S
C1117      C1118   1.407       .  A
C1117      H1126   1.083       .  S
C1118      C1119   1.406       .  A
C1119      C1120   1.398       .  A
C1119      H1127   1.083       .  S
C1120      H1128   1.083       .  S
C1129      C1130   1.405   1_554  A
C1129      C1134   1.407       .  A
C1130      C1131   1.397   1_556  A
C1130      H1143   1.083       .  S
C1131      C1132   1.399       .  A
C1131      H1144   1.083       .  S
C1132      C1133   1.400       .  A
C1132      C1135   1.437       .  S
C1133      C1134   1.398       .  A
C1133      H1145   1.084       .  S
C1134      H1146   1.083       .  S
C1135      C1136   1.205       .  T
C1136      C1137   1.437       .  S
C1137      C1138   1.399       .  A
C1137      C1142   1.400       .  A
C1138      C1139   1.397       .  A
C1138      H1147   1.083       .  S
C1139      C1140   1.405       .  A
C1139      H1148   1.083       .  S
C1140      C1141   1.407       .  A
C1141      C1142   1.398       .  A
C1141      H1149   1.083       .  S
C1142      H1150   1.084       .  S
C1151      C1152   1.405       .  A
C1151      C1156   1.406       .  A
C1152      C1153   1.397       .  A
C1152      H1165   1.083       .  S
C1153      C1154   1.399       .  A
C1153      H1166   1.083       .  S
C1154      C1155   1.400       .  A
C1154      C1157   1.438       .  S
C1155      C1156   1.398       .  A
C1155      H1167   1.084       .  S
C1156      H1168   1.083       .  S
C1157      C1158   1.205       .  T
C1158      C1159   1.437       .  S
C1159      C1160   1.399       .  A
C1159      C1164   1.400       .  A
C1160      C1161   1.397       .  A
C1160      H1169   1.083       .  S
C1161      C1162   1.406       .  A
C1161      H1170   1.083       .  S
C1162      C1163   1.405       .  A
C1163      C1164   1.399       .  A
C1163      H1171   1.083       .  S
C1164      H1172   1.084       .  S
C1173      C1174   1.406       .  A
C1173      C1178   1.407       .  A
C1174      C1175   1.402       .  A
C1174      H1187   1.083       .  S
C1175      C1176   1.401       .  A
C1175      H1188   1.083       .  S
C1176      C1177   1.401       .  A
C1176      C1179   1.445       .  S
C1177      C1178   1.400       .  A
C1177      H1189   1.084       .  S
C1178      H1190   1.083       .  S
C1179      C1180   1.209       .  T
C1180      C1181   1.444       .  S
C1181      C1182   1.400       .  A
C1181      C1186   1.402       .  A
C1182      C1183   1.398       .  A
C1182      H1191   1.084       .  S
C1183      C1184   1.406       .  A
C1183      H1192   1.083       .  S
C1184      C1185   1.407       .  A
C1185      C1186   1.402       .  A
C1185      H1193   1.083       .  S
C1186      H1194   1.083       .  S
C1195      C1196   1.406       .  A
C1195      C1200   1.406       .  A
C1196      C1197   1.399       .  A
C1196      H1209   1.083       .  S
C1197      C1198   1.400       .  A
C1197      H1210   1.084       .  S
C1198      C1199   1.401       .  A
C1198      C1201   1.443       .  S
C1199      C1200   1.400       .  A
C1199      H1211   1.083       .  S
C1200      H1212   1.083       .  S
C1201      C1202   1.208       .  T
C1202      C1203   1.443       .  S
C1203      C1204   1.401       .  A
C1203      C1208   1.400       .  A
C1204      C1205   1.400       .  A
C1204      H1213   1.084       .  S
C1205      C1206   1.406       .  A
C1205      H1214   1.083       .  S
C1206      C1207   1.407       .  A
C1207      C1208   1.399       .  A
C1207      H1215   1.083       .  S
C1208      H1216   1.083       .  S
C1217      C1218   1.406       .  A
C1217      C1222   1.406       .  A
C1218      C1219   1.398   1_556  A
C1218      H1231   1.083       .  S
C1219      C1220   1.400       .  A
C1219      H1232   1.084       .  S
C1220      C1221   1.400       .  A
C1220      C1223   1.440       .  S
C1221      C1222   1.400   1_554  A
C1221      H1233   1.083       .  S
C1222      H1234   1.083       .  S
C1223      C1224   1.206       .  T
C1224      C1225   1.440       .  S
C1225      C1226   1.400       .  A
C1225      C1230   1.400       .  A
C1226      C1227   1.400       .  A
C1226      H1235   1.083       .  S
C1227      C1228   1.406       .  A
C1227      H1236   1.083       .  S
C1228      C1229   1.406       .  A
C1229      C1230   1.398       .  A
C1229      H1237   1.083       .  S
C1230      H1238   1.084       .  S
C1239      C1240   1.406       .  A
C1239      C1244   1.407       .  A
C1240      C1241   1.397       .  A
C1240      H1253   1.083       .  S
C1241      C1242   1.399   1_655  A
C1241      H1254   1.084       .  S
C1242      C1243   1.402       .  A
C1242      C1245   1.442       .  S
C1243      C1244   1.402   1_455  A
C1243      H1255   1.083       .  S
C1244      H1256   1.083       .  S
C1245      C1246   1.208       .  T
C1246      C1247   1.442       .  S
C1247      C1248   1.399       .  A
C1247      C1252   1.401       .  A
C1248      C1249   1.399       .  A
C1248      H1257   1.084       .  S
C1249      C1250   1.406       .  A
C1249      H1258   1.083       .  S
C1250      C1251   1.407       .  A
C1251      C1252   1.401       .  A
C1251      H1259   1.083       .  S
C1252      H1260   1.083       .  S
C1261      C1262   1.406       .  A
C1261      C1266   1.406       .  A
C1262      C1263   1.398       .  A
C1262      H1275   1.083       .  S
C1263      C1264   1.400       .  A
C1263      H1276   1.083   1_556  S
C1264      C1265   1.400       .  A
C1264      C1267   1.440       .  S
C1265      C1266   1.400       .  A
C1265      H1277   1.083       .  S
C1266      H1278   1.083       .  S
C1267      C1268   1.206       .  T
C1268      C1269   1.441       .  S
C1269      C1270   1.401       .  A
C1269      C1274   1.400       .  A
C1270      C1271   1.400   1_556  A
C1270      H1279   1.083       .  S
C1271      C1272   1.406       .  A
C1271      H1280   1.083       .  S
C1272      C1273   1.406       .  A
C1273      C1274   1.398   1_554  A
C1273      H1281   1.083   1_565  S
C1274      H1282   1.084       .  S
C1283      C1284   1.407       .  A
C1283      C1288   1.405       .  A
C1284      C1285   1.400       .  A
C1284      H1297   1.083       .  S
C1285      C1286   1.400       .  A
C1285      H1298   1.083       .  S
C1286      C1287   1.399       .  A
C1286      C1289   1.438       .  S
C1287      C1288   1.397       .  A
C1287      H1299   1.084   1_554  S
C1288      H1300   1.083   1_554  S
C1289      C1290   1.205       .  T
C1290      C1291   1.438   1_554  S
C1291      C1292   1.400       .  A
C1291      C1296   1.400       .  A
C1292      C1293   1.397       .  A
C1292      H1301   1.084   1_556  S
C1293      C1294   1.406       .  A
C1293      H1302   1.083   1_655  S
C1294      C1295   1.405       .  A
C1295      C1296   1.398       .  A
C1295      H1303   1.083       .  S
C1296      H1304   1.083       .  S
C1305      C1306   1.406       .  A
C1305      C1310   1.407       .  A
C1306      C1307   1.400       .  A
C1306      H1319   1.083       .  S
C1307      C1308   1.401       .  A
C1307      H1320   1.083       .  S
C1308      C1309   1.400       .  A
C1308      C1311   1.442       .  S
C1309      C1310   1.399       .  A
C1309      H1321   1.084       .  S
C1310      H1322   1.083       .  S
C1311      C1312   1.208       .  T
C1312      C1313   1.442       .  S
C1313      C1314   1.400       .  A
C1313      C1318   1.400       .  A
C1314      C1315   1.400       .  A
C1314      H1323   1.083       .  S
C1315      C1316   1.406       .  A
C1315      H1324   1.083       .  S
C1316      C1317   1.406       .  A
C1317      C1318   1.400       .  A
C1317      H1325   1.083       .  S
C1318      H1326   1.084       .  S
C1327      C1328   1.407       .  A
C1327      C1332   1.405       .  A
C1328      C1329   1.400       .  A
C1328      H1341   1.083       .  S
C1329      C1330   1.400       .  A
C1329      H1342   1.083       .  S
C1330      C1331   1.400       .  A
C1330      C1333   1.440       .  S
C1331      C1332   1.398       .  A
C1331      H1343   1.084       .  S
C1332      H1344   1.083       .  S
C1333      C1334   1.206       .  T
C1334      C1335   1.440       .  S
C1335      C1336   1.400       .  A
C1335      C1340   1.400       .  A
C1336      C1337   1.398       .  A
C1336      H1345   1.083       .  S
C1337      C1338   1.406       .  A
C1337      H1346   1.083       .  S
C1338      C1339   1.406       .  A
C1339      C1340   1.400       .  A
C1339      H1347   1.083       .  S
C1340      H1348   1.083       .  S
C1349      C1350   1.406       .  A
C1349      C1354   1.407       .  A
C1350      C1351   1.400       .  A
C1350      H1363   1.083       .  S
C1351      C1352   1.401       .  A
C1351      H1364   1.083       .  S
C1352      C1353   1.401       .  A
C1352      C1355   1.443       .  S
C1353      C1354   1.400       .  A
C1353      H1365   1.083       .  S
C1354      H1366   1.083       .  S
C1355      C1356   1.208       .  T
C1356      C1357   1.443       .  S
C1357      C1358   1.401       .  A
C1357      C1362   1.400       .  A
C1358      C1359   1.400       .  A
C1358      H1367   1.083       .  S
C1359      C1360   1.407       .  A
C1359      H1368   1.083   1_556  S
C1360      C1361   1.406       .  A
C1361      C1362   1.399       .  A
C1361      H1369   1.083       .  S
C1362      H1370   1.083       .  S
C1371      C1372   1.406       .  A
C1371      C1376   1.405       .  A
C1372      C1373   1.398       .  A
C1372      H1385   1.083       .  S
C1373      C1374   1.400       .  A
C1373      H1386   1.083       .  S
C1374      C1375   1.400       .  A
C1374      C1377   1.438       .  S
C1375      C1376   1.398       .  A
C1375      H1387   1.084       .  S
C1376      H1388   1.083       .  S
C1377      C1378   1.205       .  T
C1378      C1379   1.438       .  S
C1379      C1380   1.400       .  A
C1379      C1384   1.399       .  A
C1380      C1381   1.398       .  A
C1380      H1389   1.083       .  S
C1381      C1382   1.405       .  A
C1381      H1390   1.083       .  S
C1382      C1383   1.406       .  A
C1383      C1384   1.397       .  A
C1383      H1391   1.083       .  S
C1384      H1392   1.084       .  S
C1393      C1394   1.407       .  A
C1393      C1398   1.405       .  A
C1394      C1395   1.399       .  A
C1394      H1407   1.083       .  S
C1395      C1396   1.400       .  A
C1395      H1408   1.084       .  S
C1396      C1397   1.400       .  A
C1396      C1399   1.439       .  S
C1397      C1398   1.398       .  A
C1397      H1409   1.083       .  S
C1398      H1410   1.083       .  S
C1399      C1400   1.206       .  T
C1400      C1401   1.439       .  S
C1401      C1402   1.400       .  A
C1401      C1406   1.400       .  A
C1402      C1403   1.399       .  A
C1402      H1411   1.084       .  S
C1403      C1404   1.405       .  A
C1403      H1412   1.083       .  S
C1404      C1405   1.406       .  A
C1405      C1406   1.398       .  A
C1405      H1413   1.083       .  S
C1406      H1414   1.083       .  S
C1415      C1416   1.406       .  A
C1415      C1420   1.407       .  A
C1416      C1417   1.399       .  A
C1416      H1429   1.083       .  S
C1417      C1418   1.401       .  A
C1417      H1430   1.084       .  S
C1418      C1419   1.402       .  A
C1418      C1421   1.445       .  S
C1419      C1420   1.402       .  A
C1419      H1431   1.083       .  S
C1420      H1432   1.083       .  S
C1421      C1422   1.209       .  T
C1422      C1423   1.445       .  S
C1423      C1424   1.402       .  A
C1423      C1428   1.400       .  A
C1424      C1425   1.403       .  A
C1424      H1433   1.083       .  S
C1425      C1426   1.407       .  A
C1425      H1434   1.083       .  S
C1426      C1427   1.406       .  A
C1427      C1428   1.399       .  A
C1427      H1435   1.083       .  S
C1428      H1436   1.084       .  S
C1437      C1438   1.406       .  A
C1437      C1442   1.406       .  A
C1438      C1439   1.400       .  A
C1438      H1451   1.083       .  S
C1439      C1440   1.400       .  A
C1439      H1452   1.083       .  S
C1440      C1441   1.400       .  A
C1440      C1443   1.440       .  S
C1441      C1442   1.397       .  A
C1441      H1453   1.084       .  S
C1442      H1454   1.083       .  S
C1443      C1444   1.206       .  T
C1444      C1445   1.440       .  S
C1445      C1446   1.399       .  A
C1445      C1450   1.401       .  A
C1446      C1447   1.397       .  A
C1446      H1455   1.084       .  S
C1447      C1448   1.405       .  A
C1447      H1456   1.083       .  S
C1448      C1449   1.407       .  A
C1449      C1450   1.400       .  A
C1449      H1457   1.083       .  S
C1450      H1458   1.083       .  S
C1459      C1460   1.407       .  A
C1459      C1464   1.406       .  A
C1460      C1461   1.399       .  A
C1460      H1473   1.083       .  S
C1461      C1462   1.400       .  A
C1461      H1474   1.084       .  S
C1462      C1463   1.401       .  A
C1462      C1465   1.442       .  S
C1463      C1464   1.400       .  A
C1463      H1475   1.083       .  S
C1464      H1476   1.083       .  S
C1465      C1466   1.207       .  T
C1466      C1467   1.442       .  S
C1467      C1468   1.400       .  A
C1467      C1472   1.401       .  A
C1468      C1469   1.399       .  A
C1468      H1477   1.083       .  S
C1469      C1470   1.406       .  A
C1469      H1478   1.083       .  S
C1470      C1471   1.406       .  A
C1471      C1472   1.400       .  A
C1471      H1479   1.083       .  S
C1472      H1480   1.083       .  S
C1481      C1482   1.407       .  A
C1481      C1486   1.406       .  A
C1482      C1483   1.397       .  A
C1482      H1495   1.083       .  S
C1483      C1484   1.399       .  A
C1483      H1496   1.084       .  S
C1484      C1485   1.402       .  A
C1484      C1487   1.441       .  S
C1485      C1486   1.401       .  A
C1485      H1497   1.083       .  S
C1486      H1498   1.083       .  S
C1487      C1488   1.206       .  T
C1488      C1489   1.440       .  S
C1489      C1490   1.399       .  A
C1489      C1494   1.401       .  A
C1490      C1491   1.397   1_565  A
C1490      H1499   1.084   1_565  S
C1491      C1492   1.406   1_545  A
C1491      H1500   1.083       .  S
C1492      C1493   1.406       .  A
C1493      C1494   1.400       .  A
C1493      H1501   1.083       .  S
C1494      H1502   1.083       .  S
C1503      C1504   1.406       .  A
C1503      C1508   1.405       .  A
C1504      C1505   1.400       .  A
C1504      H1517   1.083       .  S
C1505      C1506   1.401       .  A
C1505      H1518   1.083       .  S
C1506      C1507   1.398       .  A
C1506      C1509   1.437       .  S
C1507      C1508   1.395       .  A
C1507      H1519   1.084       .  S
C1508      H1520   1.083       .  S
C1509      C1510   1.205       .  T
C1510      C1511   1.437       .  S
C1511      C1512   1.399       .  A
C1511      C1516   1.400       .  A
C1512      C1513   1.398       .  A
C1512      H1521   1.084       .  S
C1513      C1514   1.405       .  A
C1513      H1522   1.083       .  S
C1514      C1515   1.406       .  A
C1515      C1516   1.398       .  A
C1515      H1523   1.083       .  S
C1516      H1524   1.083       .  S
C1525      C1526   1.407       .  A
C1525      C1530   1.406       .  A
C1526      C1527   1.400       .  A
C1526      H1539   1.083       .  S
C1527      C1528   1.400       .  A
C1527      H1540   1.083       .  S
C1528      C1529   1.400       .  A
C1528      C1531   1.441       .  S
C1529      C1530   1.399       .  A
C1529      H1541   1.084       .  S
C1530      H1542   1.083       .  S
C1531      C1532   1.207       .  T
C1532      C1533   1.441       .  S
C1533      C1534   1.401       .  A
C1533      C1538   1.399       .  A
C1534      C1535   1.401       .  A
C1534      H1543   1.083       .  S
C1535      C1536   1.406       .  A
C1535      H1544   1.083       .  S
C1536      C1537   1.405       .  A
C1537      C1538   1.397       .  A
C1537      H1545   1.083       .  S
C1538      H1546   1.084       .  S
C1547      C1548   1.406       .  A
C1547      C1552   1.406       .  A
C1548      C1549   1.398       .  A
C1548      H1561   1.083       .  S
C1549      C1550   1.400       .  A
C1549      H1562   1.084       .  S
C1550      C1551   1.401       .  A
C1550      C1553   1.442       .  S
C1551      C1552   1.400       .  A
C1551      H1563   1.083       .  S
C1552      H1564   1.083       .  S
C1553      C1554   1.208       .  T
C1554      C1555   1.442       .  S
C1555      C1556   1.402       .  A
C1555      C1560   1.399       .  A
C1556      C1557   1.401   1_556  A
C1556      H1565   1.083       .  S
C1557      C1558   1.406       .  A
C1557      H1566   1.083       .  S
C1558      C1559   1.406       .  A
C1559      C1560   1.398   1_554  A
C1559      H1567   1.083       .  S
C1560      H1568   1.084       .  S
C1569      C1570   1.406       .  A
C1569      C1574   1.406       .  A
C1570      C1571   1.400       .  A
C1570      H1583   1.083       .  S
C1571      C1572   1.400       .  A
C1571      H1584   1.083       .  S
C1572      C1573   1.401       .  A
C1572      C1575   1.443       .  S
C1573      C1574   1.400       .  A
C1573      H1585   1.083       .  S
C1574      H1586   1.083       .  S
C1575      C1576   1.208       .  T
C1576      C1577   1.443       .  S
C1577      C1578   1.400       .  A
C1577      C1582   1.401       .  A
C1578      C1579   1.399       .  A
C1578      H1587   1.083       .  S
C1579      C1580   1.405       .  A
C1579      H1588   1.083       .  S
C1580      C1581   1.406       .  A
C1581      C1582   1.400       .  A
C1581      H1589   1.083       .  S
C1582      H1590   1.083       .  S
C1591      C1592   1.406       .  A
C1591      C1596   1.406       .  A
C1592      C1593   1.398       .  A
C1592      H1605   1.083       .  S
C1593      C1594   1.399       .  A
C1593      H1606   1.084       .  S
C1594      C1595   1.401       .  A
C1594      C1597   1.440       .  S
C1595      C1596   1.400       .  A
C1595      H1607   1.083       .  S
C1596      H1608   1.083       .  S
C1597      C1598   1.206       .  T
C1598      C1599   1.440       .  S
C1599      C1600   1.399       .  A
C1599      C1604   1.401       .  A
C1600      C1601   1.398       .  A
C1600      H1609   1.084       .  S
C1601      C1602   1.406       .  A
C1601      H1610   1.083       .  S
C1602      C1603   1.406       .  A
C1603      C1604   1.400       .  A
C1603      H1611   1.083       .  S
C1604      H1612   1.083       .  S
C1613      C1614   1.406       .  A
C1613      C1618   1.407       .  A
C1614      C1615   1.398       .  A
C1614      H1627   1.083       .  S
C1615      C1616   1.400       .  A
C1615      H1628   1.084       .  S
C1616      C1617   1.400       .  A
C1616      C1619   1.439       .  S
C1617      C1618   1.399       .  A
C1617      H1629   1.083       .  S
C1618      H1630   1.083       .  S
C1619      C1620   1.206       .  T
C1620      C1621   1.439       .  S
C1621      C1622   1.401       .  A
C1621      C1626   1.399       .  A
C1622      C1623   1.400       .  A
C1622      H1631   1.083       .  S
C1623      C1624   1.406       .  A
C1623      H1632   1.083       .  S
C1624      C1625   1.406       .  A
C1625      C1626   1.396       .  A
C1625      H1633   1.083       .  S
C1626      H1634   1.084       .  S
C1635      C1636   1.406       .  A
C1635      C1640   1.406       .  A
C1636      C1637   1.398       .  A
C1636      H1649   1.083       .  S
C1637      C1638   1.400       .  A
C1637      H1650   1.083       .  S
C1638      C1639   1.400       .  A
C1638      C1641   1.440       .  S
C1639      C1640   1.399       .  A
C1639      H1651   1.084       .  S
C1640      H1652   1.083       .  S
C1641      C1642   1.206       .  T
C1642      C1643   1.440       .  S
C1643      C1644   1.400       .  A
C1643      C1648   1.400   1_545  A
C1644      C1645   1.399       .  A
C1644      H1653   1.083       .  S
C1645      C1646   1.406   1_545  A
C1645      H1654   1.083       .  S
C1646      C1647   1.406       .  A
C1647      C1648   1.398       .  A
C1647      H1655   1.083       .  S
C1648      H1656   1.084       .  S
C1657      C1658   1.405       .  A
C1657      C1662   1.407       .  A
C1658      C1659   1.399       .  A
C1658      H1671   1.083       .  S
C1659      C1660   1.400       .  A
C1659      H1672   1.083       .  S
C1660      C1661   1.400       .  A
C1660      C1663   1.440       .  S
C1661      C1662   1.399       .  A
C1661      H1673   1.084       .  S
C1662      H1674   1.083       .  S
C1663      C1664   1.206       .  T
C1664      C1665   1.439       .  S
C1665      C1666   1.400       .  A
C1665      C1670   1.400       .  A
C1666      C1667   1.398       .  A
C1666      H1675   1.083       .  S
C1667      C1668   1.406       .  A
C1667      H1676   1.083       .  S
C1668      C1669   1.406       .  A
C1669      C1670   1.398       .  A
C1669      H1677   1.083       .  S
C1670      H1678   1.083       .  S
C1679      C1680   1.405       .  A
C1679      C1684   1.406       .  A
C1680      C1681   1.396       .  A
C1680      H1693   1.083       .  S
C1681      C1682   1.399       .  A
C1681      H1694   1.084       .  S
C1682      C1683   1.400       .  A
C1682      C1685   1.436       .  S
C1683      C1684   1.399       .  A
C1683      H1695   1.084       .  S
C1684      H1696   1.083       .  S
C1685      C1686   1.204       .  T
C1686      C1687   1.436       .  S
C1687      C1688   1.399       .  A
C1687      C1692   1.400       .  A
C1688      C1689   1.398       .  A
C1688      H1697   1.083       .  S
C1689      C1690   1.406       .  A
C1689      H1698   1.083       .  S
C1690      C1691   1.406       .  A
C1691      C1692   1.397       .  A
C1691      H1699   1.083       .  S
C1692      H1700   1.084       .  S
C1701      C1702   1.406       .  A
C1701      C1706   1.406       .  A
C1702      C1703   1.399       .  A
C1702      H1715   1.083       .  S
C1703      C1704   1.400       .  A
C1703      H1716   1.083       .  S
C1704      C1705   1.398       .  A
C1704      C1707   1.436       .  S
C1705      C1706   1.396       .  A
C1705      H1717   1.084       .  S
C1706      H1718   1.083       .  S
C1707      C1708   1.204       .  T
C1708      C1709   1.436       .  S
C1709      C1710   1.399   1_556  A
C1709      C1714   1.400       .  A
C1710      C1711   1.396       .  A
C1710      H1719   1.084       .  S
C1711      C1712   1.405       .  A
C1711      H1720   1.083       .  S
C1712      C1713   1.406       .  A
C1713      C1714   1.399   1_554  A
C1713      H1721   1.083   1_554  S
C1714      H1722   1.084       .  S
C1723      C1724   1.405       .  A
C1723      C1728   1.406       .  A
C1724      C1725   1.400       .  A
C1724      H1737   1.083       .  S
C1725      C1726   1.401       .  A
C1725      H1738   1.083   1_556  S
C1726      C1727   1.399       .  A
C1726      C1729   1.440   1_556  S
C1727      C1728   1.397       .  A
C1727      H1739   1.084       .  S
C1728      H1740   1.083       .  S
C1729      C1730   1.206       .  T
C1730      C1731   1.440       .  S
C1731      C1732   1.400       .  A
C1731      C1736   1.400       .  A
C1732      C1733   1.398       .  A
C1732      H1741   1.083       .  S
C1733      C1734   1.406       .  A
C1733      H1742   1.083       .  S
C1734      C1735   1.406       .  A
C1735      C1736   1.399       .  A
C1735      H1743   1.083       .  S
C1736      H1744   1.084       .  S
C1745      C1746   1.405       .  A
C1745      C1750   1.406       .  A
C1746      C1747   1.399       .  A
C1746      H1759   1.083       .  S
C1747      C1748   1.400       .  A
C1747      H1760   1.083       .  S
C1748      C1749   1.399       .  A
C1748      C1751   1.438       .  S
C1749      C1750   1.397       .  A
C1749      H1761   1.084       .  S
C1750      H1762   1.083       .  S
C1751      C1752   1.205       .  T
C1752      C1753   1.438       .  S
C1753      C1754   1.400       .  A
C1753      C1758   1.399       .  A
C1754      C1755   1.399       .  A
C1754      H1763   1.083       .  S
C1755      C1756   1.406       .  A
C1755      H1764   1.083   1_556  S
C1756      C1757   1.406       .  A
C1757      C1758   1.397       .  A
C1757      H1765   1.083       .  S
C1758      H1766   1.084       .  S
C1767      C1768   1.406       .  A
C1767      C1772   1.407       .  A
C1768      C1769   1.399       .  A
C1768      H1781   1.083       .  S
C1769      C1770   1.400       .  A
C1769      H1782   1.083       .  S
C1770      C1771   1.400       .  A
C1770      C1773   1.440       .  S
C1771      C1772   1.399       .  A
C1771      H1783   1.084       .  S
C1772      H1784   1.083       .  S
C1773      C1774   1.206       .  T
C1774      C1775   1.440       .  S
C1775      C1776   1.400       .  A
C1775      C1780   1.400       .  A
C1776      C1777   1.398       .  A
C1776      H1785   1.083       .  S
C1777      C1778   1.406       .  A
C1777      H1786   1.083       .  S
C1778      C1779   1.406       .  A
C1779      C1780   1.399       .  A
C1779      H1787   1.083       .  S
C1780      H1788   1.084       .  S
C1789      C1790   1.406       .  A
C1789      C1794   1.407       .  A
C1790      C1791   1.401       .  A
C1790      H1803   1.083       .  S
C1791      C1792   1.401       .  A
C1791      H1804   1.083       .  S
C1792      C1793   1.401       .  A
C1792      C1795   1.445       .  S
C1793      C1794   1.400       .  A
C1793      H1805   1.083       .  S
C1794      H1806   1.083       .  S
C1795      C1796   1.209       .  T
C1796      C1797   1.445       .  S
C1797      C1798   1.400       .  A
C1797      C1802   1.401       .  A
C1798      C1799   1.400       .  A
C1798      H1807   1.084       .  S
C1799      C1800   1.407       .  A
C1799      H1808   1.083       .  S
C1800      C1801   1.407       .  A
C1801      C1802   1.402       .  A
C1801      H1809   1.083       .  S
C1802      H1810   1.083       .  S
C1811      C1812   1.406       .  A
C1811      C1816   1.407       .  A
C1812      C1813   1.401       .  A
C1812      H1825   1.083       .  S
C1813      C1814   1.401       .  A
C1813      H1826   1.083       .  S
C1814      C1815   1.400       .  A
C1814      C1817   1.444       .  S
C1815      C1816   1.399       .  A
C1815      H1827   1.083       .  S
C1816      H1828   1.083       .  S
C1817      C1818   1.208       .  T
C1818      C1819   1.444       .  S
C1819      C1820   1.400       .  A
C1819      C1824   1.401       .  A
C1820      C1821   1.399       .  A
C1820      H1829   1.084       .  S
C1821      C1822   1.407       .  A
C1821      H1830   1.083       .  S
C1822      C1823   1.406       .  A
C1823      C1824   1.400       .  A
C1823      H1831   1.083       .  S
C1824      H1832   1.083       .  S
C1833      C1834   1.405       .  A
C1833      C1838   1.407       .  A
C1834      C1835   1.400       .  A
C1834      H1847   1.083       .  S
C1835      C1836   1.401       .  A
C1835      H1848   1.083       .  S
C1836      C1837   1.399       .  A
C1836      C1839   1.438       .  S
C1837      C1838   1.396       .  A
C1837      H1849   1.084       .  S
C1838      H1850   1.083       .  S
C1839      C1840   1.205       .  T
C1840      C1841   1.438       .  S
C1841      C1842   1.399       .  A
C1841      C1846   1.400       .  A
C1842      C1843   1.396       .  A
C1842      H1851   1.084       .  S
C1843      C1844   1.406       .  A
C1843      H1852   1.083       .  S
C1844      C1845   1.406       .  A
C1845      C1846   1.399       .  A
C1845      H1853   1.083       .  S
C1846      H1854   1.083       .  S
C1855      C1856   1.406       .  A
C1855      C1860   1.406       .  A
C1856      C1857   1.400       .  A
C1856      H1869   1.083       .  S
C1857      C1858   1.401       .  A
C1857      H1870   1.083       .  S
C1858      C1859   1.399       .  A
C1858      C1861   1.440       .  S
C1859      C1860   1.397       .  A
C1859      H1871   1.084       .  S
C1860      H1872   1.083       .  S
C1861      C1862   1.206       .  T
C1862      C1863   1.440       .  S
C1863      C1864   1.399       .  A
C1863      C1868   1.400       .  A
C1864      C1865   1.398       .  A
C1864      H1873   1.084       .  S
C1865      C1866   1.406       .  A
C1865      H1874   1.083       .  S
C1866      C1867   1.406       .  A
C1867      C1868   1.400       .  A
C1867      H1875   1.083       .  S
C1868      H1876   1.083       .  S
C1877      C1878   1.406       .  A
C1877      C1882   1.406       .  A
C1878      C1879   1.398       .  A
C1878      H1891   1.083       .  S
C1879      C1880   1.400       .  A
C1879      H1892   1.084       .  S
C1880      C1881   1.400       .  A
C1880      C1883   1.440       .  S
C1881      C1882   1.399       .  A
C1881      H1893   1.083       .  S
C1882      H1894   1.083       .  S
C1883      C1884   1.206       .  T
C1884      C1885   1.441       .  S
C1885      C1886   1.400       .  A
C1885      C1890   1.400       .  A
C1886      C1887   1.400       .  A
C1886      H1895   1.083       .  S
C1887      C1888   1.406       .  A
C1887      H1896   1.083       .  S
C1888      C1889   1.406       .  A
C1889      C1890   1.399       .  A
C1889      H1897   1.083       .  S
C1890      H1898   1.084       .  S
C1899      C1900   1.405       .  A
C1899      C1904   1.406       .  A
C1900      C1901   1.396       .  A
C1900      H1913   1.083       .  S
C1901      C1902   1.399       .  A
C1901      H1914   1.084       .  S
C1902      C1903   1.400       .  A
C1902      C1905   1.437       .  S
C1903      C1904   1.399       .  A
C1903      H1915   1.083       .  S
C1904      H1916   1.083       .  S
C1905      C1906   1.204       .  T
C1906      C1907   1.437       .  S
C1907      C1908   1.399       .  A
C1907      C1912   1.400       .  A
C1908      C1909   1.398       .  A
C1908      H1917   1.084       .  S
C1909      C1910   1.406       .  A
C1909      H1918   1.083       .  S
C1910      C1911   1.405       .  A
C1911      C1912   1.398       .  A
C1911      H1919   1.083       .  S
C1912      H1920   1.083       .  S
C1921      C1922   1.406       .  A
C1921      C1926   1.406       .  A
C1922      C1923   1.398       .  A
C1922      H1935   1.083       .  S
C1923      C1924   1.400       .  A
C1923      H1936   1.084       .  S
C1924      C1925   1.400       .  A
C1924      C1927   1.440       .  S
C1925      C1926   1.400       .  A
C1925      H1937   1.083       .  S
C1926      H1938   1.083       .  S
C1927      C1928   1.206       .  T
C1928      C1929   1.440       .  S
C1929      C1930   1.400       .  A
C1929      C1934   1.399       .  A
C1930      C1931   1.399       .  A
C1930      H1939   1.083       .  S
C1931      C1932   1.406       .  A
C1931      H1940   1.083       .  S
C1932      C1933   1.406       .  A
C1933      C1934   1.398       .  A
C1933      H1941   1.083       .  S
C1934      H1942   1.084       .  S
C1943      C1944   1.406       .  A
C1943      C1948   1.406       .  A
C1944      C1945   1.399       .  A
C1944      H1957   1.083       .  S
C1945      C1946   1.400       .  A
C1945      H1958   1.083       .  S
C1946      C1947   1.399       .  A
C1946      C1949   1.438       .  S
C1947      C1948   1.397       .  A
C1947      H1959   1.084       .  S
C1948      H1960   1.083       .  S
C1949      C1950   1.205       .  T
C1950      C1951   1.438       .  S
C1951      C1952   1.399       .  A
C1951      C1956   1.400       .  A
C1952      C1953   1.396       .  A
C1952      H1961   1.084       .  S
C1953      C1954   1.406       .  A
C1953      H1962   1.083       .  S
C1954      C1955   1.406       .  A
C1955      C1956   1.399       .  A
C1955      H1963   1.083       .  S
C1956      H1964   1.083       .  S
C1965      C1966   1.406       .  A
C1965      C1970   1.406       .  A
C1966      C1967   1.397       .  A
C1966      H1979   1.083       .  S
C1967      C1968   1.399       .  A
C1967      H1980   1.084       .  S
C1968      C1969   1.402       .  A
C1968      C1971   1.441       .  S
C1969      C1970   1.401       .  A
C1969      H1981   1.083       .  S
C1970      H1982   1.083       .  S
C1971      C1972   1.207       .  T
C1972      C1973   1.441       .  S
C1973      C1974   1.400       .  A
C1973      C1978   1.401       .  A
C1974      C1975   1.398       .  A
C1974      H1983   1.084       .  S
C1975      C1976   1.405       .  A
C1975      H1984   1.083       .  S
C1976      C1977   1.407       .  A
C1977      C1978   1.400       .  A
C1977      H1985   1.083       .  S
C1978      H1986   1.083       .  S
C1987      C1988   1.405       .  A
C1987      C1992   1.406       .  A
C1988      C1989   1.397       .  A
C1988      H2001   1.083       .  S
C1989      C1990   1.399       .  A
C1989      H2002   1.084       .  S
C1990      C1991   1.400       .  A
C1990      C1993   1.437       .  S
C1991      C1992   1.398       .  A
C1991      H2003   1.083       .  S
C1992      H2004   1.083       .  S
C1993      C1994   1.204       .  T
C1994      C1995   1.437       .  S
C1995      C1996   1.399       .  A
C1995      C2000   1.400       .  A
C1996      C1997   1.397       .  A
C1996      H2005   1.083       .  S
C1997      C1998   1.405       .  A
C1997      H2006   1.083       .  S
C1998      C1999   1.406       .  A
C1999      C2000   1.399       .  A
C1999      H2007   1.083       .  S
C2000      H2008   1.084       .  S
C2009      C2010   1.407       .  A
C2009      C2014   1.407       .  A
C2010      C2011   1.402   1_554  A
C2010      H2023   1.083       .  S
C2011      C2012   1.401       .  A
C2011      H2024   1.083       .  S
C2012      C2013   1.401       .  A
C2012      C2015   1.445       .  S
C2013      C2014   1.400   1_556  A
C2013      H2025   1.084       .  S
C2014      H2026   1.083       .  S
C2015      C2016   1.209       .  T
C2016      C2017   1.445       .  S
C2017      C2018   1.400       .  A
C2017      C2022   1.402       .  A
C2018      C2019   1.399       .  A
C2018      H2027   1.083       .  S
C2019      C2020   1.406       .  A
C2019      H2028   1.083       .  S
C2020      C2021   1.407       .  A
C2021      C2022   1.402       .  A
C2021      H2029   1.083       .  S
C2022      H2030   1.083       .  S
C2031      C2032   1.406       .  A
C2031      C2036   1.406       .  A
C2032      C2033   1.399       .  A
C2032      H2045   1.083       .  S
C2033      C2034   1.401       .  A
C2033      H2046   1.083       .  S
C2034      C2035   1.400       .  A
C2034      C2037   1.440       .  S
C2035      C2036   1.398       .  A
C2035      H2047   1.084       .  S
C2036      H2048   1.083       .  S
C2037      C2038   1.206       .  T
C2038      C2039   1.441       .  S
C2039      C2040   1.400       .  A
C2039      C2044   1.401       .  A
C2040      C2041   1.399       .  A
C2040      H2049   1.083       .  S
C2041      C2042   1.406       .  A
C2041      H2050   1.083       .  S
C2042      C2043   1.406       .  A
C2043      C2044   1.399       .  A
C2043      H2051   1.083       .  S
C2044      H2052   1.083       .  S
