geometry optimzed in LAMMPS
_audit_creation_date              2020-11-30 
_audit_creation_method            'lammps2cif' 
_symmetry_space_group_name_H-M    'P1' 
_symmetry_Int_Tables_number       1 
_symmetry_cell_setting            triclinic 
loop_ 
_symmetry_equiv_pos_as_xyz 
  x,y,z 
_cell_length_a                    53.84396543 
_cell_length_b                    54.19531815459866 
_cell_length_c                    54.0735612222705 
_cell_angle_alpha                 90.29337626641141 
_cell_angle_beta                  90.04159495369774 
_cell_angle_gamma                 90.04426632952145 
loop_ 
_atom_site_label 
_atom_site_type_symbol 
_atom_site_fract_x 
_atom_site_fract_y 
_atom_site_fract_z 
_atom_site_charge 
O1          O  0.59936843  0.66049230  0.65626661    -0.77300
C2          C  0.65781564  0.66993253  0.59776616     0.83800
O3          O  0.58284579  0.61759715  0.57441542    -0.78400
O4          O  0.65751415  0.58549602  0.57956890    -0.79900
O5          O  0.65549756  0.58612112  0.66247438    -0.79700
O6          O  0.61430513  0.63013310  0.67959920    -0.78300
Zn7        Zn  0.60994649  0.64978245  0.62094381     1.55700
O8          O  0.67955997  0.60173229  0.63277348    -0.79700
Cd9        Cd  0.62099495  0.60201571  0.65449885     1.59700
Cd10       Cd  0.59971676  0.59518710  0.60002296     1.59600
O11         O  0.59023270  0.57859314  0.65891040    -0.79700
O12         O  0.62158833  0.61602798  0.62066822    -1.90200
Cd13       Cd  0.65537576  0.61387908  0.60595120     1.59900
O14         O  0.57252926  0.57944106  0.62170546    -0.79600
O15         O  0.66698733  0.64858329  0.59328699    -0.78300
C16         C  0.57750642  0.64051292  0.57526333     0.84200
C17         C  0.60403066  0.65123880  0.67756675     0.83900
O18         O  0.63751599  0.67234508  0.60966945    -0.77200
C19         C  0.67688007  0.58944031  0.65264616     0.84700
O20         O  0.58416581  0.65426574  0.59343269    -0.77300
C21         C  0.57202301  0.57358556  0.64450878     0.84800
C22         C  0.64281750  0.56746994  0.57500682     0.85200
O23         O  0.62035183  0.56772156  0.58255410    -0.79800
O24         O  0.86660161  0.58925833  0.34291162    -0.77300
C25         C  0.92294708  0.64962617  0.33364149     0.83800
O26         O  0.94659229  0.57631326  0.38851073    -0.78400
O27         O  0.93969465  0.64967248  0.41846000    -0.79900
O28         O  0.85582250  0.64961566  0.41419262    -0.79700
O29         O  0.84167783  0.60561881  0.37163572    -0.78300
Zn30       Zn  0.90124097  0.60132567  0.35381513     1.55700
O31         O  0.88727049  0.67254904  0.40040702    -0.79700
Cd32       Cd  0.86515111  0.61438862  0.40047879     1.59700
Cd33       Cd  0.91895979  0.59275223  0.40855318     1.59600
O34         O  0.86010807  0.58506588  0.42534376    -0.79700
O35         O  0.89942227  0.61425678  0.38708323    -1.90200
Cd36       Cd  0.91419372  0.64769675  0.38949099     1.59900
O37         O  0.89673265  0.56613601  0.42360073    -0.79600
O38         O  0.92755986  0.65863035  0.35506890    -0.78300
C39         C  0.94712381  0.56993799  0.36583906     0.84200
C40         C  0.84483636  0.59414447  0.35120404     0.83900
O41         O  0.91169004  0.62902665  0.33100030    -0.77200
C42         C  0.86626376  0.67063828  0.41111498     0.84700
O43         O  0.92952098  0.57567892  0.35097623    -0.77300
C44         C  0.87402664  0.56652149  0.43009056     0.84800
C45         C  0.94230679  0.63527337  0.43693338     0.85200
O46         O  0.93411972  0.61325334  0.43651454    -0.79800
O47         O  0.92639718  0.43289176  0.13617743    -0.77300
C48         C  0.86910769  0.44356964  0.07652338     0.83800
O49         O  0.84497856  0.38928235  0.14712271    -0.78400
O50         O  0.85496951  0.35743727  0.07285791    -0.79900
O51         O  0.93706006  0.36161223  0.07671564    -0.79700
O52         O  0.95098339  0.40391697  0.11999769    -0.78300
Zn53       Zn  0.89170547  0.42250556  0.12385850     1.55700
O54         O  0.90826638  0.37831320  0.05223646    -0.79700
Cd55       Cd  0.92698944  0.37572363  0.11139427     1.59700
Cd56       Cd  0.87229878  0.36859673  0.13104285     1.59600
O57         O  0.93117027  0.35192235  0.14169236    -0.79700
O58         O  0.89297411  0.38957664  0.11022002    -1.90200
Cd59       Cd  0.87954421  0.38764176  0.07609243     1.59900
O60         O  0.89356120  0.35401668  0.15859436    -0.79600
O61         O  0.86511601  0.42244760  0.06644962    -0.78300
C62         C  0.84521279  0.41165236  0.15440987     0.84200
C63         C  0.94806954  0.42418482  0.13169923     0.83900
O64         O  0.88076129  0.44552684  0.09698158    -0.77200
C65         C  0.92844104  0.36627473  0.05514782     0.84700
O66         O  0.86354584  0.42586541  0.14950318    -0.77300
C67         C  0.91634607  0.34789901  0.15971847     0.84800
C68         C  0.85011450  0.33981245  0.08782879     0.85200
O69         O  0.85668346  0.34086831  0.11042586    -0.79800
C70         C  0.75421806  0.62612664  0.00172342     0.04300
C71         C  0.77615350  0.61337579  0.00808024    -0.11800
C72         C  0.77609636  0.58747450  0.00933005     0.01900
C73         C  0.75423304  0.57454162  0.00432278    -0.10300
C74         C  0.73228486  0.58682117  0.99817709     0.04300
C75         C  0.73228504  0.61270720  0.99678932    -0.09700
H76         H  0.79297695  0.62353151  0.01232716     0.09900
H77         H  0.75430952  0.55454722  0.00534174     0.07500
H78         H  0.71534297  0.62236048  0.99201577     0.07300
C79         C  0.12928941  0.49124759  0.25365132     0.04300
C80         C  0.11604503  0.49790732  0.27522387    -0.11800
C81         C  0.08989683  0.49754370  0.27520654     0.01900
C82         C  0.07721525  0.49074888  0.25365258    -0.10300
C83         C  0.08999516  0.48414081  0.23221826     0.04300
C84         C  0.11604152  0.48432351  0.23216783    -0.09700
H85         H  0.12597163  0.50358955  0.29173343     0.09900
H86         H  0.05705914  0.49079016  0.25347379     0.07500
H87         H  0.12595477  0.47915108  0.21549652     0.07300
O88         O  0.58732831  0.35011626  0.86265713    -0.77300
C89         C  0.64660335  0.33741028  0.91831376     0.83800
O90         O  0.57864934  0.39390218  0.94523879    -0.78400
O91         O  0.65104429  0.42320300  0.93500178    -0.79900
O92         O  0.64983107  0.41989302  0.85400366    -0.79700
O93         O  0.60564864  0.37853026  0.83909999    -0.78300
Zn94       Zn  0.59949514  0.36041034  0.89727678     1.55700
O95         O  0.67264338  0.40134857  0.88297667    -0.79700
Cd96       Cd  0.61422678  0.40682472  0.86294259     1.59700
Cd97       Cd  0.59286607  0.41437802  0.91651436     1.59600
O98         O  0.58456011  0.43142445  0.85814263    -0.79700
O99         O  0.61382286  0.39278233  0.89647750    -1.90200
Cd100      Cd  0.64763582  0.39317481  0.91066867     1.59900
O101        O  0.56489068  0.42811476  0.89427172    -0.79600
O102        O  0.65673742  0.35804872  0.92409247    -0.78300
C103        C  0.57183686  0.37137278  0.94531337     0.84200
C104        C  0.59343584  0.35849562  0.84138205     0.83900
O105        O  0.62611069  0.33656859  0.90659042    -0.77200
C106        C  0.67091851  0.41368114  0.86303054     0.84700
O107        O  0.57513608  0.35742684  0.92638746    -0.77300
C108        C  0.56536218  0.43485039  0.87168932     0.84800
C109        C  0.63714409  0.44216743  0.93794755     0.85200
O110        O  0.61469004  0.44239821  0.93039194    -0.79800
O111        O  0.43987778  0.13873299  0.92378170    -0.77300
C112        C  0.44742901  0.07868142  0.86715721     0.83800
O113        O  0.39474178  0.15192213  0.84374302    -0.78400
O114        O  0.35996956  0.07555324  0.85926880    -0.79900
O115        O  0.36657860  0.08324898  0.93733178    -0.79700
O116        O  0.40971337  0.12646026  0.94926248    -0.78300
Zn117      Zn  0.42795923  0.12664920  0.88987105     1.55700
O118        O  0.38501086  0.05752681  0.91074466    -0.79700
Cd119      Cd  0.38069332  0.11736579  0.92590297     1.59700
Cd120      Cd  0.37312202  0.13531542  0.87016818     1.59600
O121        O  0.35520391  0.14663607  0.92859778    -0.79700
O122        O  0.39419864  0.11485848  0.89183181    -1.90200
Cd123      Cd  0.39211789  0.07996507  0.88063684     1.59900
O124        O  0.35559234  0.16230958  0.89060601    -0.79600
O125        O  0.42585558  0.06914032  0.86404861    -0.78300
C126        C  0.41767334  0.15775082  0.84402804     0.84200
C127        C  0.43115793  0.13576600  0.94558520     0.83900
O128        O  0.45019137  0.09907521  0.87868372    -0.77200
C129        C  0.37223376  0.06138222  0.93026589     0.84700
O130        O  0.43194897  0.15152284  0.86184045    -0.77300
C131        C  0.34901567  0.16344110  0.91322464     0.84800
C132        C  0.34332721  0.09065506  0.85185068     0.85200
O133        O  0.34580233  0.11392986  0.85413674    -0.79800
C134        C  0.50654151  0.22565951  0.08678016     0.04300
C135        C  0.50550088  0.22542220  0.11276601    -0.11800
C136        C  0.51124526  0.24690758  0.12656574     0.01900
C137        C  0.51784126  0.26873173  0.11384407    -0.10300
C138        C  0.51843293  0.26906174  0.08784866     0.04300
C139        C  0.51300114  0.24747735  0.07468315    -0.09700
H140        H  0.49984037  0.20872818  0.12215529     0.09900
H141        H  0.52211517  0.28544255  0.12407347     0.07500
H142        H  0.51321379  0.24785908  0.05462229     0.07300
C143        C  0.52981563  0.26815100  0.69408429     0.04300
C144        C  0.52796601  0.26754341  0.66816449    -0.11800
C145        C  0.51043035  0.25186462  0.65654686     0.01900
C146        C  0.49418397  0.23761827  0.67133879    -0.10300
C147        C  0.49536022  0.23937075  0.69733825     0.04300
C148        C  0.51368047  0.25399436  0.70823324    -0.09700
H149        H  0.54019924  0.27892643  0.65713542     0.09900
H150        H  0.48020585  0.22605121  0.66270027     0.07500
H151        H  0.51502407  0.25490299  0.72825612     0.07300
C152        C  0.62713900  0.00528917  0.74596824     0.04300
C153        C  0.61560671  0.01253316  0.76831558    -0.11800
C154        C  0.58960148  0.01135034  0.77060314     0.01900
C155        C  0.57539197  0.00304041  0.75063532    -0.10300
C156        C  0.58644777  0.99606978  0.72834787     0.04300
C157        C  0.61239343  0.99703646  0.72599438    -0.09700
H158        H  0.62674440  0.01913675  0.78367916     0.09900
H159        H  0.55532218  0.00228133  0.75235917     0.07500
H160        H  0.62105436  0.99138071  0.70879551     0.07300
C161        C  0.92956460  0.99530364  0.27740258     0.04300
C162        C  0.94148425  0.00384335  0.25614241    -0.11800
C163        C  0.92790093  0.01320682  0.23627763     0.01900
C164        C  0.90185190  0.01399529  0.23761043    -0.10300
C165        C  0.88950127  0.00546521  0.25894088     0.04300
C166        C  0.90353014  0.99609131  0.27881847    -0.09700
H167        H  0.96160371  0.00334869  0.25510154     0.09900
H168        H  0.89128229  0.02138291  0.22228473     0.07500
H169        H  0.89423833  0.98929991  0.29520191     0.07300
C170        C  0.26687986  0.31376918  0.98461572     0.04300
C171        C  0.26914872  0.33970160  0.98498505    -0.11800
C172        C  0.25342183  0.35400914  0.00039272     0.01900
C173        C  0.23603888  0.34199069  0.01570260    -0.10300
C174        C  0.23427242  0.31620638  0.01548160     0.04300
C175        C  0.24945983  0.30241345  0.99982993    -0.09700
H176        H  0.28269294  0.34863655  0.97323782     0.09900
H177        H  0.22422462  0.35262869  0.02797208     0.07500
H178        H  0.24802893  0.28242491  0.99985337     0.07300
C179        C  0.25516874  0.88064080  0.00449826     0.04300
C180        C  0.27668162  0.89429615  0.99817046    -0.11800
C181        C  0.27664746  0.92028555  0.99997308     0.01900
C182        C  0.25510494  0.93231650  0.00780037    -0.10300
C183        C  0.23375563  0.91918948  0.01405788     0.04300
C184        C  0.23372630  0.89334789  0.01248728    -0.09700
H185        H  0.29323954  0.88479630  0.99192679     0.09900
H186        H  0.25487136  0.95231682  0.00895204     0.07500
H187        H  0.21720910  0.88317727  0.01766255     0.07300
C188        C  0.31994454  0.98937987  0.27136552     0.04300
C189        C  0.34604701  0.98960992  0.27082405    -0.11800
C190        C  0.35868257  0.00531390  0.25426925     0.01900
C191        C  0.34489002  0.02065793  0.23832312    -0.10300
C192        C  0.31883987  0.02047469  0.23921808     0.04300
C193        C  0.30668129  0.00485211  0.25563153    -0.09700
H194        H  0.35641596  0.97754433  0.28295166     0.09900
H195        H  0.35435378  0.03269635  0.22545446     0.07500
H196        H  0.28652304  0.00464023  0.25607386     0.07300
C197        C  0.01161107  0.25042548  0.87522020     0.04300
C198        C  0.00234000  0.27098454  0.88850022    -0.11800
C199        C  0.00260474  0.27101255  0.91454746     0.01900
C200        C  0.01186072  0.25053093  0.92704859    -0.10300
C201        C  0.02123039  0.23018187  0.91425224     0.04300
C202        C  0.02111447  0.23002946  0.88829351    -0.09700
H203        H  0.99520990  0.28684166  0.87866630     0.09900
H204        H  0.01206214  0.25054332  0.94712363     0.07500
H205        H  0.02872391  0.21436662  0.87833907     0.07300
C206        C  0.98785578  0.27361250  0.31176735     0.04300
C207        C  0.98780290  0.27372807  0.33771230    -0.11800
C208        C  0.00178555  0.25602746  0.35078668     0.01900
C209        C  0.01587247  0.23839494  0.33750076    -0.10300
C210        C  0.01584655  0.23854966  0.31152344     0.04300
C211        C  0.00189071  0.25615705  0.29900044    -0.09700
H212        H  0.97662957  0.28713067  0.34762280     0.09900
H213        H  0.02667940  0.22468977  0.34727569     0.07500
H214        H  0.00185456  0.25622231  0.27891860     0.07300
O215        O  0.08806180  0.07588617  0.14295486    -0.77300
C216        C  0.14453833  0.06365087  0.08293473     0.83800
O217        O  0.16962282  0.11890433  0.15323640    -0.78400
O218        O  0.16121257  0.14891012  0.08093503    -0.79900
O219        O  0.07990520  0.14695833  0.08178690    -0.79700
O220        O  0.06357523  0.10392980  0.12521886    -0.78300
Zn221      Zn  0.12265292  0.08536905  0.13019749     1.55700
O222        O  0.10955219  0.12962608  0.05870454    -0.79700
Cd223      Cd  0.08790522  0.13207395  0.11670656     1.59700
Cd224      Cd  0.14175240  0.13919044  0.13801706     1.59600
O225        O  0.08356129  0.15653890  0.14653935    -0.79700
O226        O  0.12167786  0.11799003  0.11683734    -1.90200
Cd227      Cd  0.13645660  0.11937936  0.08354061     1.59900
O228        O  0.12006074  0.15317855  0.16562291    -0.79600
O229        O  0.15003508  0.08463624  0.07364433    -0.78300
C230        C  0.16972163  0.09645307  0.15997387     0.84200
C231        C  0.06640977  0.08426161  0.13781034     0.83900
O232        O  0.13227367  0.06191341  0.10301360    -0.77200
C233        C  0.08986130  0.14253511  0.06070935     0.84700
O234        O  0.15143032  0.08210575  0.15507166    -0.77300
C235        C  0.09749264  0.16008494  0.16541535     0.84800
C236        C  0.16367371  0.16766279  0.09519259     0.85200
O237        O  0.15597047  0.16738345  0.11743487    -0.79800
O238        O  0.43010357  0.85804868  0.59346248    -0.77300
C239        C  0.43931026  0.92260690  0.64499190     0.83800
O240        O  0.38469152  0.85220239  0.67464515    -0.78400
O241        O  0.35296542  0.92419274  0.65904902    -0.79900
O242        O  0.35817330  0.91788419  0.57858082    -0.79700
O243        O  0.40271436  0.87458323  0.56733390    -0.78300
Zn244      Zn  0.41906749  0.87337567  0.62658089     1.55700
O245        O  0.37485151  0.94270794  0.60712269    -0.79700
Cd246      Cd  0.37301943  0.88352145  0.58978510     1.59700
Cd247      Cd  0.36438649  0.86557363  0.64512558     1.59600
O248        O  0.35004132  0.85227553  0.58634581    -0.79700
O249        O  0.38585593  0.88566394  0.62400693    -1.90200
Cd250      Cd  0.38368004  0.91993964  0.63605848     1.59900
O251        O  0.35172554  0.83640064  0.62428938    -0.79600
O252        O  0.41786171  0.93141516  0.65004030    -0.78300
C253        C  0.40774954  0.84684263  0.67555367     0.84200
C254        C  0.42264049  0.86250494  0.57140956     0.83900
O255        O  0.44184234  0.90187469  0.63403351    -0.77200
C256        C  0.36283258  0.93957127  0.58705224     0.84700
O257        O  0.42224133  0.85153572  0.65739207    -0.77300
C258        C  0.34636676  0.83444837  0.60139176     0.84800
C259        C  0.33419761  0.91006735  0.66217089     0.85200
O260        O  0.33508064  0.88715743  0.65673404    -0.79800
O261        O  0.09267943  0.92649534  0.36322806    -0.77300
C262        C  0.14581051  0.93895010  0.42515397     0.83800
O263        O  0.17467280  0.88255623  0.35531508    -0.78400
O264        O  0.15999649  0.85354563  0.43104341    -0.79900
O265        O  0.08015749  0.85553217  0.42289193    -0.79700
O266        O  0.06728320  0.89862273  0.37987119    -0.78300
Zn267      Zn  0.12668389  0.91632915  0.37680641     1.55700
O268        O  0.10702464  0.87492662  0.44765798    -0.79700
Cd269      Cd  0.09085504  0.87001940  0.38846919     1.59700
Cd270      Cd  0.14691966  0.86147691  0.37091421     1.59600
O271        O  0.08757697  0.84626012  0.35785849    -0.79700
O272        O  0.12504225  0.88348227  0.39019615    -1.90200
Cd273      Cd  0.13636766  0.88333938  0.42494481     1.59900
O274        O  0.12618238  0.84503517  0.34301341    -0.79600
O275        O  0.14989485  0.91804133  0.43524404    -0.78300
C276        C  0.17454852  0.90502386  0.34837717     0.84200
C277        C  0.07077834  0.91857805  0.36795336     0.83900
O278        O  0.13545887  0.94047877  0.40399740    -0.77200
C279        C  0.08787164  0.86141733  0.44456095     0.84700
O280        O  0.15595966  0.91911621  0.35270861    -0.77300
C281        C  0.10306154  0.84019887  0.34091941     0.84800
C282        C  0.16645948  0.83540163  0.41729426     0.85200
O283        O  0.16234831  0.83515325  0.39403506    -0.79800
C284        C  0.00816279  0.74593339  0.62478558     0.04300
C285        C  0.00099426  0.72512961  0.61070677    -0.11800
C286        C  0.00182539  0.72592391  0.58480892     0.01900
C287        C  0.00956085  0.74741151  0.57300966    -0.10300
C288        C  0.01686800  0.76813500  0.58652978     0.04300
C289        C  0.01617994  0.76750537  0.61252484    -0.09700
H290        H  0.99467178  0.70851467  0.61982948     0.09900
H291        H  0.01020353  0.74790682  0.55295153     0.07500
H292        H  0.02202697  0.78351882  0.62310098     0.07300
C293        C  0.25126506  0.12231962  0.50645993     0.04300
C294        C  0.27173163  0.10859815  0.51524852    -0.11800
C295        C  0.27022739  0.08276641  0.51696948     0.01900
C296        C  0.24833055  0.07077176  0.51003194    -0.10300
C297        C  0.22788712  0.08391705  0.50111778     0.04300
C298        C  0.22934149  0.10977352  0.49937392    -0.09700
H299        H  0.28870726  0.11794487  0.52061906     0.09900
H300        H  0.24742351  0.05079851  0.51106105     0.07500
H301        H  0.21370782  0.12001773  0.49209902     0.07300
C302        C  0.28334984  0.68283970  0.52187412     0.04300
C303        C  0.26718308  0.69751751  0.50828581    -0.11800
C304        C  0.24819325  0.68726236  0.49397377     0.01900
C305        C  0.24667899  0.66137942  0.49169392    -0.10300
C306        C  0.26367305  0.64603506  0.50452996     0.04300
C307        C  0.28186612  0.65706363  0.51989382    -0.09700
H308        H  0.26872970  0.71743676  0.50988531     0.09900
H309        H  0.23212137  0.65324898  0.48046667     0.07500
H310        H  0.29417464  0.64570107  0.53085631     0.07300
C311        C  0.00463907  0.75879965  0.14990765     0.04300
C312        C  0.02313589  0.77274882  0.16223093    -0.11800
C313        C  0.02513880  0.77173922  0.18813740     0.01900
C314        C  0.00827990  0.75760827  0.20153737    -0.10300
C315        C  0.98939190  0.74424137  0.18986826     0.04300
C316        C  0.98790788  0.74436798  0.16387666    -0.09700
H317        H  0.03604997  0.78389573  0.15174176     0.09900
H318        H  0.00991365  0.75708099  0.22153932     0.07500
H319        H  0.97351771  0.73382942  0.15460432     0.07300
C320        C  0.15060785  0.00843093  0.75620135     0.04300
C321        C  0.16546204  0.02062217  0.77410150    -0.11800
C322        C  0.19155021  0.01918775  0.77277324     0.01900
C323        C  0.20247078  0.00595338  0.75337022    -0.10300
C324        C  0.18809575  0.99341407  0.73593902     0.04300
C325        C  0.16215252  0.99469903  0.73720050    -0.09700
H326        H  0.15680321  0.03097684  0.78895303     0.09900
H327        H  0.22255902  0.00486043  0.75211477     0.07500
H328        H  0.15101446  0.98475316  0.72374713     0.07300
C329        C  0.74972395  0.15202995  0.00069135     0.04300
C330        C  0.76567528  0.16582283  0.01620042    -0.11800
C331        C  0.76582915  0.19167516  0.01498813     0.01900
C332        C  0.75063913  0.20358886  0.99795039    -0.10300
C333        C  0.73497156  0.19029404  0.98214899     0.04300
C334        C  0.73406696  0.16440936  0.98385218    -0.09700
H335        H  0.77780078  0.15649553  0.02913037     0.09900
H336        H  0.75098512  0.22359072  0.99703272     0.07500
H337        H  0.72189278  0.15397600  0.97173440     0.07300
C338        C  0.52803983  0.73902848  0.82111977     0.04300
C339        C  0.51075275  0.75266975  0.80754865    -0.11800
C340        C  0.49280412  0.76717784  0.81933826     0.01900
C341        C  0.49242039  0.76844922  0.84532929    -0.10300
C342        C  0.50933376  0.75440195  0.85939179     0.04300
C343        C  0.52702414  0.73949521  0.84712636    -0.09700
H344        H  0.51127749  0.75198075  0.78749690     0.09900
H345        H  0.47866860  0.77979733  0.85456544     0.07500
H346        H  0.54015742  0.72872294  0.85774181     0.07300
C347        C  0.50534847  0.75069893  0.38952582     0.04300
C348        C  0.51231794  0.72916552  0.40251800    -0.11800
C349        C  0.51215732  0.72901419  0.42856025     0.01900
C350        C  0.50529780  0.75026355  0.44144738    -0.10300
C351        C  0.49856027  0.77180494  0.42919343     0.04300
C352        C  0.49843105  0.77204990  0.40311622    -0.09700
H353        H  0.51789915  0.71274745  0.39246027     0.09900
H354        H  0.50518420  0.75000143  0.46152253     0.07500
H355        H  0.49283037  0.78861718  0.39348257     0.07300
C356        C  0.76066726  0.85249516  0.50379381     0.04300
C357        C  0.74452952  0.83869900  0.51903179    -0.11800
C358        C  0.74605197  0.81278233  0.51940626     0.01900
C359        C  0.76312228  0.80073720  0.50413791    -0.10300
C360        C  0.77889759  0.81398510  0.48860202     0.04300
C361        C  0.77795447  0.83988608  0.48865398    -0.09700
H362        H  0.73125554  0.84805347  0.53084216     0.09900
H363        H  0.76395724  0.78072877  0.50414821     0.07500
H364        H  0.79020899  0.85014389  0.47658530     0.07300
C365        C  0.38257791  0.50689543  0.75409728     0.04300
C366        C  0.39632229  0.51350923  0.73279809    -0.11800
C367        C  0.42245343  0.51420453  0.73363797     0.01900
C368        C  0.43463346  0.50880128  0.75573383    -0.10300
C369        C  0.42160121  0.50191028  0.77684528     0.04300
C370        C  0.39551686  0.50082840  0.77605937    -0.09700
H371        H  0.38680623  0.51801568  0.71575497     0.09900
H372        H  0.45478283  0.50927673  0.75630620     0.07500
H373        H  0.38538304  0.49507873  0.79234598     0.07300
C374        C  0.81951253  0.51395735  0.74336281     0.04300
C375        C  0.80601059  0.49873670  0.75913876    -0.11800
C376        C  0.81783805  0.48192713  0.77465200     0.01900
C377        C  0.84390878  0.48110069  0.77523076    -0.10300
C378        C  0.85799200  0.49617026  0.75921558     0.04300
C379        C  0.84557400  0.51237509  0.74296124    -0.09700
H380        H  0.78587367  0.49969280  0.75901592     0.09900
H381        H  0.85316651  0.46829161  0.78748349     0.07500
H382        H  0.85609654  0.52402006  0.73055425     0.07300
C383        C  0.75510013  0.38435182  0.49605348     0.04300
C384        C  0.73350011  0.39809419  0.50215533    -0.11800
C385        C  0.73372018  0.42411059  0.50105216     0.01900
C386        C  0.75559838  0.43609065  0.49417655    -0.10300
C387        C  0.77713004  0.42300804  0.48841448     0.04300
C388        C  0.77687690  0.39712754  0.48904171    -0.09700
H389        H  0.71678795  0.38865651  0.50802027     0.09900
H390        H  0.75614287  0.45610556  0.49393059     0.07500
H391        H  0.79359315  0.38703118  0.48434687     0.07300
C392        C  0.69750675  0.51947365  0.26695245     0.04300
C393        C  0.67133145  0.51923127  0.26812610    -0.11800
C394        C  0.65753880  0.50233002  0.25346949     0.01900
C395        C  0.67047141  0.48545200  0.23804811    -0.10300
C396        C  0.69665179  0.48522613  0.23778961     0.04300
C397        C  0.70970341  0.50218976  0.25218115    -0.09700
H398        H  0.66176801  0.53258648  0.27964279     0.09900
H399        H  0.66026304  0.47256662  0.22651252     0.07500
H400        H  0.72986612  0.50215496  0.25159275     0.07300
O401        O  0.10964783  0.37926882  0.66782084    -0.77300
C402        C  0.17349549  0.41609418  0.64339101     0.83800
O403        O  0.06802703  0.42974089  0.61296390    -0.78400
O404        O  0.15306506  0.42300648  0.57103949    -0.79900
O405        O  0.13124811  0.33577742  0.59884738    -0.79700
O406        O  0.09259501  0.34892335  0.64561054    -0.78300
Zn407      Zn  0.11738494  0.40661754  0.64404719     1.55700
O408        O  0.16027757  0.35972476  0.58198661    -0.79700
Cd409      Cd  0.10348976  0.35945788  0.60999540     1.59700
Cd410      Cd  0.09503330  0.41416819  0.59054464     1.59600
O411        O  0.07729343  0.35552567  0.58140037    -0.79700
O412        O  0.11689924  0.39349807  0.61095991    -1.90200
Cd413      Cd  0.15053324  0.39425809  0.59624633     1.59900
O414        O  0.07906350  0.39237526  0.56338073    -0.79600
O415        O  0.17587380  0.40415658  0.62314547    -0.78300
C416        C  0.06907356  0.43553155  0.63585839     0.84200
C417        C  0.09852059  0.35853557  0.66649953     0.83900
O418        O  0.15203333  0.42031372  0.65273964    -0.77200
C419        C  0.15121269  0.33839155  0.58646133     0.84700
O420        O  0.08818257  0.43034375  0.64893108    -0.77300
C421        C  0.07257539  0.36973492  0.56312647     0.84800
C422        C  0.13865766  0.44121346  0.56672193     0.85200
O423        O  0.11614408  0.44134666  0.57409508    -0.79800
O424        O  0.60807898  0.12414781  0.33863024    -0.77300
C425        C  0.67633637  0.09204126  0.36447843     0.83800
O426        O  0.57084283  0.07586374  0.39445578    -0.78400
O427        O  0.65543962  0.08192488  0.43654200    -0.79900
O428        O  0.63164393  0.16962377  0.40612409    -0.79700
O429        O  0.58988301  0.15326008  0.36151880    -0.78300
Zn430      Zn  0.61951472  0.09807628  0.36300635     1.55700
O431        O  0.65959962  0.14688431  0.42630661    -0.79700
Cd432      Cd  0.60421883  0.14480006  0.39657244     1.59700
Cd433      Cd  0.59792708  0.09061659  0.41673624     1.59600
O434        O  0.57919882  0.14832671  0.42606884    -0.79700
O435        O  0.61893326  0.11145909  0.39603836    -1.90200
Cd436      Cd  0.65200917  0.11166079  0.41189543     1.59900
O437        O  0.58251189  0.11182162  0.44452806    -0.79600
O438        O  0.67785172  0.10357450  0.38503976    -0.78300
C439        C  0.57235762  0.06840918  0.37210606     0.84200
C440        C  0.59478664  0.14360007  0.34040852     0.83900
O441        O  0.65526581  0.08691800  0.35455641    -0.77200
C442        C  0.65064499  0.16787792  0.42014860     0.84700
O443        O  0.59198487  0.07198863  0.35921760    -0.77300
C444        C  0.57538068  0.13424622  0.44462142     0.84800
C445        C  0.64140954  0.06309427  0.43968355     0.85200
O446        O  0.61907183  0.06287515  0.43187616    -0.79800
C447        C  0.50853218  0.25118815  0.62907140     0.04300
C448        C  0.51347997  0.22917548  0.61574301    -0.11800
C449        C  0.51175434  0.22879341  0.58971379     0.01900
C450        C  0.50508571  0.25035803  0.57734084    -0.10300
C451        C  0.50006894  0.27217963  0.59009482     0.04300
C452        C  0.50192591  0.27274801  0.61600610    -0.09700
H453        H  0.51877331  0.21259577  0.62552831     0.09900
H454        H  0.50392332  0.25027365  0.55729819     0.07500
H455        H  0.49789029  0.28967728  0.62595540     0.07300
O456        O  0.40762449  0.37181687  0.33606852    -0.77300
C457        C  0.34322883  0.40901958  0.36069203     0.83800
O458        O  0.44674060  0.42312168  0.39407149    -0.78400
O459        O  0.36092761  0.41237499  0.43501258    -0.79900
O460        O  0.38506461  0.32636265  0.40349807    -0.79700
O461        O  0.42488092  0.34169374  0.35809731    -0.78300
Zn462      Zn  0.39928388  0.39884304  0.36063231     1.55700
O463        O  0.35410955  0.34911052  0.41876038    -0.79700
Cd464      Cd  0.41243845  0.35117120  0.39357087     1.59700
Cd465      Cd  0.41977474  0.40585854  0.41523652     1.59600
O466        O  0.43846483  0.34735875  0.42195630    -0.79700
O467        O  0.39865372  0.38513350  0.39359642    -1.90200
Cd468      Cd  0.36447947  0.38493688  0.40769595     1.59900
O469        O  0.43700772  0.38380611  0.44123966    -0.79600
O470        O  0.34025185  0.39683395  0.38061466    -0.78300
C471        C  0.44674901  0.42900155  0.37125229     0.84200
C472        C  0.41931460  0.35138807  0.33727299     0.83900
O473        O  0.36490827  0.41287020  0.35171599    -0.77200
C474        C  0.36410782  0.32808706  0.41435977     0.84700
O475        O  0.42856409  0.42314824  0.35708827    -0.77300
C476        C  0.44367789  0.36122146  0.44046559     0.84800
C477        C  0.37493292  0.43076754  0.44028993     0.85200
O478        O  0.39747969  0.43165935  0.43297189    -0.79800
C479        C  0.58977653  0.49743140  0.27468830     0.04300
C480        C  0.57760787  0.50441271  0.25294926    -0.11800
C481        C  0.59065132  0.51089855  0.23166514     0.01900
C482        C  0.61679575  0.51025073  0.23188058    -0.10300
C483        C  0.62975080  0.50299993  0.25344567     0.04300
C484        C  0.61602895  0.49663311  0.27488472    -0.09700
H485        H  0.55746389  0.50482209  0.25251083     0.09900
H486        H  0.62700003  0.51541489  0.21543816     0.07500
H487        H  0.62571546  0.49116243  0.29153843     0.07300
C488        C  0.49854258  0.73521094  0.92612542     0.04300
C489        C  0.50666873  0.75633238  0.93865946    -0.11800
C490        C  0.51594325  0.77668339  0.92594778     0.01900
C491        C  0.51681631  0.77614738  0.89994120    -0.10300
C492        C  0.50833870  0.75513080  0.88685077     0.04300
C493        C  0.49920611  0.73464739  0.90011211    -0.09700
H494        H  0.50623165  0.75676647  0.95872485     0.09900
H495        H  0.52428542  0.79178405  0.88998992     0.07500
H496        H  0.49290774  0.71834130  0.89026520     0.07300
O497        O  0.38100252  0.55952078  0.10231707    -0.77300
C498        C  0.44552654  0.57927650  0.14055310     0.83800
O499        O  0.34139005  0.61397145  0.15400872    -0.78400
O500        O  0.42843182  0.65122690  0.15414347    -0.79900
O501        O  0.40604914  0.62810960  0.06290246    -0.79700
O502        O  0.36369525  0.58348590  0.07380773    -0.78300
Zn503      Zn  0.38952068  0.58161787  0.13114888     1.55700
O504        O  0.43460717  0.64450462  0.08815242    -0.79700
Cd505      Cd  0.37740175  0.61787489  0.08596915     1.59700
Cd506      Cd  0.36977284  0.63602821  0.14147530     1.59600
O507        O  0.35289112  0.64788562  0.08340061    -0.79700
O508        O  0.39073239  0.61531374  0.12008315    -1.90200
Cd509      Cd  0.42478150  0.62876764  0.12230877     1.59900
O510        O  0.35523474  0.66487551  0.12094952    -0.79600
O511        O  0.44862376  0.59982827  0.12953204    -0.78300
C512        C  0.34059062  0.59086906  0.15831117     0.84200
C513        C  0.36903522  0.56203607  0.08213313     0.83900
O514        O  0.42371589  0.57074766  0.14482619    -0.77200
C515        C  0.42602240  0.64032041  0.06638379     0.84700
O516        O  0.35915377  0.57684420  0.15357898    -0.77300
C517        C  0.34872384  0.66589414  0.09826746     0.84800
C518        C  0.41363935  0.65524799  0.17229001     0.85200
O519        O  0.39066579  0.64952094  0.17085323    -0.79800
C520        C  0.28034574  0.57756718  0.49989474     0.04300
C521        C  0.25695946  0.56700858  0.50312588    -0.11800
C522        C  0.23581618  0.58150773  0.50650144     0.01900
C523        C  0.23800472  0.60730913  0.50687812    -0.10300
C524        C  0.26139822  0.61859695  0.50340705     0.04300
C525        C  0.28259842  0.60348181  0.49978954    -0.09700
H526        H  0.25516907  0.54705870  0.50308378     0.09900
H527        H  0.22165350  0.61849051  0.51016741     0.07500
H528        H  0.30067610  0.61180041  0.49702110     0.07300
O529        O  0.56732866  0.90115830  0.13635914    -0.77300
C530        C  0.58934652  0.86422097  0.07115280     0.83800
O531        O  0.62361749  0.85067595  0.17455144    -0.78400
O532        O  0.66347578  0.85657671  0.08963593    -0.79900
O533        O  0.63389223  0.94439448  0.10995902    -0.79700
O534        O  0.59026426  0.93174218  0.15200399    -0.78300
Zn535      Zn  0.59045474  0.87345462  0.12712872     1.55700
O536        O  0.65121475  0.91997433  0.08154810    -0.79700
Cd537      Cd  0.62508085  0.92117939  0.13869260     1.59700
Cd538      Cd  0.64511309  0.86655709  0.14754944     1.59600
O539        O  0.65517827  0.92612347  0.16274131    -0.79700
O540        O  0.62376040  0.88668210  0.12621821    -1.90200
Cd541      Cd  0.63794389  0.88538872  0.09253110     1.59900
O542        O  0.67216349  0.88867632  0.16286312    -0.79600
O543        O  0.61011307  0.87519862  0.06857981    -0.78300
C544        C  0.60085458  0.84418815  0.17448317     0.84200
C545        C  0.56911449  0.92203190  0.14724798     0.83900
O546        O  0.58008643  0.86030423  0.09263097    -0.77200
C547        C  0.64599770  0.94148642  0.08989857     0.84700
O548        O  0.58665273  0.84912158  0.15612958    -0.77300
C549        C  0.67314900  0.91163219  0.16798810     0.84800
C550        C  0.66883692  0.83895702  0.10435188     0.85200
O551        O  0.66215330  0.83936227  0.12695262    -0.79800
C552        C  0.74061018  0.69267118  0.01890544     0.04300
C553        C  0.75327777  0.70511245  0.00025632    -0.11800
C554        C  0.76655456  0.69230014  0.98216918     0.01900
C555        C  0.76729252  0.66636968  0.98274257    -0.10300
C556        C  0.75391538  0.65345871  0.00105616     0.04300
C557        C  0.74041742  0.66677758  0.01905802    -0.09700
H558        H  0.75324750  0.72514548  0.00013286     0.09900
H559        H  0.77789660  0.65634074  0.96896126     0.07500
H560        H  0.73048397  0.65707287  0.03346699     0.07300
O561        O  0.90231259  0.13359216  0.66541247    -0.77300
C562        C  0.83574286  0.09952486  0.64028759     0.83800
O563        O  0.94117358  0.08018754  0.61289031    -0.78400
O564        O  0.85789350  0.08621259  0.56816993    -0.79900
O565        O  0.88059283  0.17514113  0.59740940    -0.79700
O566        O  0.92255866  0.16037246  0.64161115    -0.78300
Zn567      Zn  0.89226462  0.10583608  0.64239339     1.55700
O568        O  0.85289792  0.15151876  0.57760137    -0.79700
Cd569      Cd  0.90813876  0.15037900  0.60705099     1.59700
Cd570      Cd  0.91492579  0.09478696  0.58969502     1.59600
O571        O  0.93299412  0.15202350  0.57744991    -0.79700
O572        O  0.89356599  0.11704887  0.60879271    -1.90200
Cd573      Cd  0.86083040  0.11663162  0.59230842     1.59900
O574        O  0.93118005  0.11411206  0.56134451    -0.79600
O575        O  0.83466194  0.10924414  0.61888746    -0.78300
C576        C  0.93934235  0.07469884  0.63570999     0.84200
C577        C  0.91618302  0.15251639  0.66297703     0.83900
O578        O  0.85656201  0.09538806  0.65101729    -0.77200
C579        C  0.86139852  0.17278965  0.58371618     0.84700
O580        O  0.91991627  0.08029647  0.64822365    -0.77300
C581        C  0.93761311  0.13668872  0.55997383     0.84800
C582        C  0.87180694  0.06715387  0.56611276     0.85200
O583        O  0.89376326  0.06694712  0.57490182    -0.79800
C584        C  0.69520140  0.98872204  0.75352882     0.04300
C585        C  0.66932917  0.98929233  0.75700373    -0.11800
C586        C  0.65454741  0.00593115  0.74346847     0.01900
C587        C  0.66597795  0.02247362  0.72689008    -0.10300
C588        C  0.69190381  0.02229312  0.72396448     0.04300
C589        C  0.70616167  0.00539712  0.73717562    -0.09700
H590        H  0.66065186  0.97637744  0.76956172     0.09900
H591        H  0.65480407  0.03535585  0.71642627     0.07500
H592        H  0.72618292  0.00547147  0.73487997     0.07300
O593        O  0.87386152  0.94609847  0.89795684    -0.77300
C594        C  0.94094434  0.92721058  0.86437950     0.83800
O595        O  0.84030476  0.88811026  0.84427809    -0.78400
O596        O  0.92735849  0.85424265  0.85290117    -0.79900
O597        O  0.89957401  0.87894229  0.94162675    -0.79700
O598        O  0.85758993  0.92276710  0.92758294    -0.78300
Zn599      Zn  0.88484874  0.92315453  0.87078329     1.55700
O600        O  0.93048221  0.86399138  0.91849108    -0.79700
Cd601      Cd  0.87189895  0.88825888  0.91700922     1.59700
Cd602      Cd  0.86728900  0.86814727  0.86172736     1.59600
O603        O  0.84723510  0.85838655  0.91929410    -0.79700
O604        O  0.88660560  0.89010314  0.88344502    -1.90200
Cd605      Cd  0.92130585  0.87781850  0.88341964     1.59900
O606        O  0.85089541  0.84066313  0.88216605    -0.79600
O607        O  0.94446947  0.90720600  0.87619730    -0.78300
C608        C  0.83974711  0.91086261  0.83860532     0.84200
C609        C  0.86211330  0.94398963  0.91828680     0.83900
O610        O  0.91907228  0.93463762  0.85885374    -0.77200
C611        C  0.92046182  0.86800068  0.93962988     0.84700
O612        O  0.85687106  0.92579298  0.84541929    -0.77300
C613        C  0.84325941  0.84030687  0.90447076     0.84800
C614        C  0.91323248  0.84867368  0.83463617     0.85200
O615        O  0.89006928  0.85341339  0.83509599    -0.79800
O616        O  0.10364977  0.62255180  0.83748507    -0.77300
C617        C  0.16934653  0.58797485  0.86288230     0.83800
O618        O  0.06621372  0.57530776  0.89766408    -0.78400
O619        O  0.15190982  0.58451804  0.93630647    -0.79900
O620        O  0.12981642  0.67099589  0.90196386    -0.79700
O621        O  0.08698957  0.65348856  0.85922980    -0.78300
Zn622      Zn  0.11333872  0.59679463  0.86290228     1.55700
O623        O  0.15812110  0.64791860  0.92118305    -0.79700
Cd624      Cd  0.10139514  0.64616055  0.89433852     1.59700
Cd625      Cd  0.09356188  0.59256789  0.91773729     1.59600
O626        O  0.07647622  0.65152126  0.92348327    -0.79700
O627        O  0.11437214  0.61200621  0.89524039    -1.90200
Cd628      Cd  0.14813240  0.61222832  0.90964460     1.59900
O629        O  0.07764897  0.61565608  0.94346558    -0.79600
O630        O  0.17221741  0.60102453  0.88236510    -0.78300
C631        C  0.06647212  0.56728325  0.87548210     0.84200
C632        C  0.09165528  0.64285400  0.83856151     0.83900
O633        O  0.14776920  0.58284709  0.85424849    -0.77200
C634        C  0.14967583  0.66902046  0.91472428     0.84700
O635        O  0.08477023  0.57164526  0.86103947    -0.77300
C636        C  0.07127308  0.63827143  0.94229968     0.84800
C637        C  0.13762207  0.56647024  0.94174789     0.85200
O638        O  0.11490149  0.56621377  0.93508748    -0.79800
C639        C  0.00666778  0.74512520  0.65218547     0.04300
C640        C  0.01894955  0.72636949  0.66553694    -0.11800
C641        C  0.01627376  0.72491530  0.69135530     0.01900
C642        C  0.00115195  0.74193878  0.70361107    -0.10300
C643        C  0.98917261  0.76077101  0.69076623     0.04300
C644        C  0.99214065  0.76260938  0.66506177    -0.09700
H645        H  0.03052087  0.71308733  0.65592305     0.09900
H646        H  0.99916065  0.74089980  0.72354998     0.07500
H647        H  0.98265381  0.77710474  0.65507523     0.07300
C648        C  0.92431043  0.49768999  0.78319443     0.04300
C649        C  0.89829447  0.49904263  0.78229255    -0.11800
C650        C  0.88558481  0.49505683  0.75978002     0.01900
C651        C  0.89936097  0.49023032  0.73801101    -0.10300
C652        C  0.92547836  0.48917840  0.73891100     0.04300
C653        C  0.93753490  0.49249646  0.76158276    -0.09700
H654        H  0.88800705  0.50346414  0.79895105     0.09900
H655        H  0.88985658  0.48745749  0.72055008     0.07500
H656        H  0.95766461  0.49182266  0.76226119     0.07300
C657        C  0.31565069  0.49390597  0.73395366     0.04300
C658        C  0.30270007  0.50539092  0.75322047    -0.11800
C659        C  0.31509219  0.51748203  0.77238238     0.01900
C660        C  0.34115427  0.51799986  0.77264452    -0.10300
C661        C  0.35483615  0.50632904  0.75358053     0.04300
C662        C  0.34183844  0.49425391  0.73418064    -0.09700
H663        H  0.28254506  0.50501747  0.75330170     0.09900
H664        H  0.35070968  0.52763170  0.78746177     0.07500
H665        H  0.35199401  0.48522985  0.71940977     0.07300
C666        C  0.73706020  0.91888464  0.50013059     0.04300
C667        C  0.75934114  0.93169299  0.50343863    -0.11800
C668        C  0.78176653  0.91939546  0.50711953     0.01900
C669        C  0.78207612  0.89351681  0.50754416    -0.10300
C670        C  0.75991312  0.87998802  0.50389505     0.04300
C671        C  0.73732337  0.89287155  0.50019943    -0.09700
H672        H  0.75923904  0.95171831  0.50325315     0.09900
H673        H  0.79944568  0.88396514  0.51074851     0.07500
H674        H  0.72019396  0.88276830  0.49729694     0.07300
C675        C  0.00104098  0.25551558  0.37821307     0.04300
C676        C  0.00715205  0.27677494  0.39220404    -0.11800
C677        C  0.00607692  0.27623059  0.41819721     0.01900
C678        C  0.99890858  0.25443561  0.42995254    -0.10300
C679        C  0.99293841  0.23325472  0.41642221     0.04300
C680        C  0.99397749  0.23372581  0.39052542    -0.09700
H681        H  0.01279657  0.29354347  0.38293491     0.09900
H682        H  0.99835915  0.25377463  0.44999960     0.07500
H683        H  0.98924299  0.21729493  0.38003080     0.07300
C684        C  0.01258406  0.25050992  0.84778309     0.04300
C685        C  0.99840131  0.23343049  0.83386598    -0.11800
C686        C  0.00087664  0.23228624  0.80798191     0.01900
C687        C  0.01768938  0.24802529  0.79626047    -0.10300
C688        C  0.03168753  0.26522923  0.80967587     0.04300
C689        C  0.02885462  0.26675034  0.83546990    -0.09700
H690        H  0.98570754  0.22102132  0.84313491     0.09900
H691        H  0.01950910  0.24725987  0.77628568     0.07500
H692        H  0.03983708  0.27989122  0.84597270     0.07300
C693        C  0.48921675  0.73473141  0.32246641     0.04300
C694        C  0.50365664  0.75200314  0.30993889    -0.11800
C695        C  0.51897189  0.76854701  0.32264666     0.01900
C696        C  0.51962913  0.76813473  0.34868031    -0.10300
C697        C  0.50510128  0.75085565  0.36187750     0.04300
C698        C  0.49013248  0.73389836  0.34850200    -0.09700
H699        H  0.50314362  0.75241834  0.28987419     0.09900
H700        H  0.53146011  0.78100328  0.35857831     0.07500
H701        H  0.47885865  0.72058245  0.35829525     0.07300
C702        C  0.86197311  0.00554565  0.26018165     0.04300
C703        C  0.84816849  0.99152922  0.24292397    -0.11800
C704        C  0.82224297  0.99019318  0.24492568     0.01900
C705        C  0.81015015  0.00337960  0.26352980    -0.10300
C706        C  0.82334614  0.01739131  0.28082728     0.04300
C707        C  0.84941160  0.01855230  0.27918148    -0.09700
H708        H  0.85760216  0.98101619  0.22865744     0.09900
H709        H  0.79004693  0.00243459  0.26473835     0.07500
H710        H  0.85982799  0.02923721  0.29263393     0.07300
C711        C  0.25498900  0.85316011  0.00349513     0.04300
C712        C  0.23689369  0.84046789  0.98929050    -0.11800
C713        C  0.23565871  0.81452865  0.98976140     0.01900
C714        C  0.25239108  0.80144641  0.00445191    -0.10300
C715        C  0.27040024  0.81357002  0.01856190     0.04300
C716        C  0.27188010  0.83947176  0.01798929    -0.09700
H717        H  0.22373242  0.85071147  0.97819513     0.09900
H718        H  0.25136775  0.78145113  0.00494805     0.07500
H719        H  0.28561659  0.84892371  0.02921959     0.07300
C720        C  0.73608396  0.31693891  0.48776884     0.04300
C721        C  0.75581391  0.30501199  0.49930309    -0.11800
C722        C  0.77528424  0.31825421  0.50996397     0.01900
C723        C  0.77503980  0.34420443  0.50911388    -0.10300
C724        C  0.75521769  0.35679817  0.49738623     0.04300
C725        C  0.73571311  0.34285624  0.48668507    -0.09700
H726        H  0.75598615  0.28499408  0.50004141     0.09900
H727        H  0.79006545  0.35448717  0.51763076     0.07500
H728        H  0.72051055  0.35205399  0.47739716     0.07300
C729        C  0.19741455  0.47828572  0.26784199     0.04300
C730        C  0.20882115  0.49292406  0.24994200    -0.11800
C731        C  0.19485194  0.50730370  0.23377854     0.01900
C732        C  0.16886418  0.50677494  0.23506373    -0.10300
C733        C  0.15686308  0.49221851  0.25303163     0.04300
C734        C  0.17132039  0.47829411  0.26977241    -0.09700
H735        H  0.22894061  0.49345934  0.24882377     0.09900
H736        H  0.15804505  0.51789517  0.22241755     0.07500
H737        H  0.16233815  0.46697588  0.28359602     0.07300
C738        C  0.25470844  0.38142946  0.00076078     0.04300
C739        C  0.27672519  0.39377986  0.00791102    -0.11800
C740        C  0.27700802  0.41968928  0.00999698     0.01900
C741        C  0.25546276  0.43304862  0.00489056    -0.10300
C742        C  0.23353590  0.42120032  0.99781288     0.04300
C743        C  0.23316419  0.39537262  0.99560867    -0.09700
H744        H  0.29322871  0.38331206  0.01245139     0.09900
H745        H  0.25572720  0.45300801  0.00662805     0.07500
H746        H  0.21613231  0.38613805  0.99020269     0.07300
C747        C  0.38619229  0.00513927  0.25298207     0.04300
C748        C  0.40070448  0.01227320  0.27361732    -0.11800
C749        C  0.42679980  0.01161696  0.27220100     0.01900
C750        C  0.43810957  0.00428427  0.25012875    -0.10300
C751        C  0.42406058  0.99689486  0.22971359     0.04300
C752        C  0.39805786  0.99728784  0.23107419    -0.09700
H753        H  0.39177340  0.01802317  0.29064252     0.09900
H754        H  0.45822688  0.00366425  0.24902355     0.07500
H755        H  0.38713105  0.99116529  0.21536045     0.07300
C756        C  0.50922847  0.24684490  0.15410663     0.04300
C757        C  0.51976870  0.22754807  0.16826399    -0.11800
C758        C  0.51738993  0.22747297  0.19423529     0.01900
C759        C  0.50461125  0.24676877  0.20580483    -0.10300
C760        C  0.49424554  0.26603949  0.19224417     0.04300
C761        C  0.49641281  0.26607099  0.16639395    -0.09700
H762        H  0.52981626  0.21277165  0.15916139     0.09900
H763        H  0.50298886  0.24703532  0.22580782     0.07500
H764        H  0.48808363  0.28091801  0.15592761     0.07300
C765        C  0.25302325  0.14960363  0.50388805     0.04300
C766        C  0.23521025  0.16516192  0.51519869    -0.11800
C767        C  0.23650545  0.19091949  0.51212991     0.01900
C768        C  0.25556486  0.20085770  0.49775743    -0.10300
C769        C  0.27305799  0.18586401  0.48610183     0.04300
C770        C  0.27210169  0.16018815  0.48942968    -0.09700
H771        H  0.22040796  0.15725612  0.52617372     0.09900
H772        H  0.25681288  0.22070096  0.49544419     0.07500
H773        H  0.28559577  0.14849539  0.48025401     0.07300
C774        C  0.00284681  0.75914632  0.12249349     0.04300
C775        C  0.00855929  0.73773205  0.10863471    -0.11800
C776        C  0.00666865  0.73787299  0.08267358     0.01900
C777        C  0.99966581  0.75965723  0.07079165    -0.10300
C778        C  0.99326687  0.78078029  0.08413715     0.04300
C779        C  0.99489760  0.78063425  0.11009468    -0.09700
H780        H  0.01425721  0.72105355  0.11802871     0.09900
H781        H  0.99865621  0.76011554  0.05075882     0.07500
H782        H  0.98973961  0.79693529  0.12056491     0.07300
C783        C  0.75042199  0.12471551  0.00138858     0.04300
C784        C  0.73077681  0.11116781  0.01204149    -0.11800
C785        C  0.73206247  0.08526194  0.01304097     0.01900
C786        C  0.75290425  0.07314782  0.00363109    -0.10300
C787        C  0.77243305  0.08626093  0.99296895     0.04300
C788        C  0.77120017  0.11209786  0.99175134    -0.09700
H789        H  0.71476370  0.12068420  0.01956105     0.09900
H790        H  0.75383818  0.05316172  0.00442941     0.07500
H791        H  0.78629722  0.12232843  0.98340423     0.07300
C792        C  0.08398291  0.00406444  0.77935067     0.04300
C793        C  0.11006165  0.00264758  0.77865655    -0.11800
C794        C  0.12308120  0.00983634  0.75718340     0.01900
C795        C  0.10966218  0.01808651  0.73635109    -0.10300
C796        C  0.08368451  0.01982057  0.73727234     0.04300
C797        C  0.07116369  0.01270229  0.75866429    -0.09700
H798        H  0.12011091  0.99578271  0.79456177     0.09900
H799        H  0.11941649  0.02375229  0.71980374     0.07500
H800        H  0.05103127  0.01361021  0.75906334     0.07300
C801        C  0.18861591  0.71445990  0.95218772    -0.27000
C802        C  0.18270867  0.73704206  0.94096690     0.06600
C803        C  0.16743051  0.73692173  0.91990717     0.26200
C804        C  0.15729873  0.71468504  0.91108733    -0.11500
C805        C  0.16255600  0.69207365  0.92279791    -0.25400
C806        C  0.17886032  0.69220289  0.94318587     0.37100
C807        C  0.19224908  0.76042259  0.95194851     0.06600
F808        F  0.16150525  0.75837089  0.90848390    -0.19200
H809        H  0.14498695  0.71522928  0.89525026     0.16500
F810        F  0.18464044  0.67100165  0.95512451    -0.22900
H811        H  0.20067454  0.71411619  0.96823296     0.18300
C812        C  0.18770434  0.76588196  0.97698762     0.26300
C813        C  0.20007676  0.78542836  0.98863139    -0.11400
C814        C  0.21714951  0.79997503  0.97556611    -0.25500
C815        C  0.22026488  0.79580623  0.95006796     0.37200
C816        C  0.20779950  0.77618036  0.93833152    -0.27100
F817        F  0.17216806  0.75153048  0.99048447    -0.19200
H818        H  0.19760926  0.78820763  0.00833451     0.16500
F819        F  0.23700825  0.80924987  0.93708269    -0.22900
H820        H  0.21154279  0.77230769  0.91902186     0.18300
C821        C  0.18279073  0.52193460  0.97230184    -0.27000
C822        C  0.16871698  0.50015964  0.97276604     0.06600
C823        C  0.14385329  0.50076569  0.96513350     0.26200
C824        C  0.13349580  0.52275401  0.95636665    -0.11500
C825        C  0.14786009  0.54447664  0.95469847    -0.25400
C826        C  0.17260367  0.54388789  0.96328234     0.37100
C827        C  0.18080393  0.47672571  0.97975036     0.06600
F828        F  0.12981404  0.47996185  0.96561129    -0.19200
H829        H  0.11443562  0.52246348  0.94995160     0.16500
F830        F  0.18727083  0.56423266  0.96228510    -0.22900
H831        H  0.20204052  0.52169463  0.97816783     0.18300
C832        C  0.18922721  0.46031575  0.96136942     0.26300
C833        C  0.20457862  0.44044662  0.96765926    -0.11400
C834        C  0.21170933  0.43678303  0.99231946    -0.25500
C835        C  0.20180250  0.45219027  0.01087676     0.37200
C836        C  0.18653981  0.47208459  0.00457917    -0.27100
F837        F  0.18420533  0.46466232  0.93718120    -0.19200
H838        H  0.21241436  0.42907293  0.95310457     0.16500
F839        F  0.20828352  0.44892734  0.03490687    -0.22900
H840        H  0.18016369  0.48456666  0.01893204     0.18300
C841        C  0.03952589  0.68470536  0.98471270    -0.27000
C842        C  0.03774004  0.67131610  0.00679711     0.06600
C843        C  0.04579976  0.64673779  0.00724431     0.26200
C844        C  0.05590791  0.63592416  0.98597151    -0.11500
C845        C  0.05840582  0.64948650  0.96391457    -0.25400
C846        C  0.04985682  0.67405569  0.96349575     0.37100
C847        C  0.02786053  0.68363866  0.02917927     0.06600
F848        F  0.04381290  0.63320102  0.02819704    -0.19200
H849        H  0.06226797  0.61700010  0.98698301     0.16500
F850        F  0.05178801  0.68800459  0.94280709    -0.22900
H851        H  0.03339343  0.70373588  0.98409029     0.18300
C852        C  0.04292135  0.68761912  0.05011592     0.26300
C853        C  0.03511326  0.70379664  0.06890266    -0.11400
C854        C  0.01215616  0.71594330  0.06703950    -0.25500
C855        C  0.99614109  0.70981070  0.04730011     0.37200
C856        C  0.00410468  0.69408289  0.02843334    -0.27100
F857        F  0.06594695  0.67752820  0.05138968    -0.19200
H858        H  0.04772054  0.70820104  0.08390410     0.16500
F859        F  0.97330984  0.72027836  0.04548182    -0.22900
H860        H  0.99212373  0.69088609  0.01263111     0.18300
C861        C  0.23626662  0.58185158  0.84183278    -0.27000
C862        C  0.23584801  0.55931336  0.82900965     0.06600
C863        C  0.21322538  0.54637193  0.82693218     0.26200
C864        C  0.19146442  0.55601329  0.83740454    -0.11500
C865        C  0.19196167  0.57848767  0.85044854    -0.25400
C866        C  0.21466103  0.59132861  0.85255151     0.37100
C867        C  0.25886922  0.54979115  0.81726326     0.06600
F868        F  0.21206958  0.52465271  0.81436660    -0.19200
H869        H  0.17431011  0.54568678  0.83568863     0.16500
F870        F  0.21595737  0.61328804  0.86467956    -0.22900
H871        H  0.25346428  0.59208721  0.84368843     0.18300
C872        C  0.27232629  0.56442499  0.80049872     0.26300
C873        C  0.29251711  0.55446070  0.78756867    -0.11400
C874        C  0.29967810  0.52987937  0.79125976    -0.25500
C875        C  0.28711802  0.51568032  0.80896227     0.37200
C876        C  0.26692246  0.52560393  0.82189584    -0.27100
F877        F  0.26480816  0.58772284  0.79524883    -0.19200
H878        H  0.30150044  0.56538783  0.77343173     0.16500
F879        F  0.29339369  0.49170470  0.81249822    -0.22900
H880        H  0.25702553  0.51413215  0.83495018     0.18300
C881        C  0.97644052  0.49650707  0.82919246    -0.27000
C882        C  0.97761504  0.52149858  0.83599506     0.06600
C883        C  0.95803607  0.53730164  0.82922810     0.26200
C884        C  0.93874087  0.52859784  0.81413874    -0.11500
C885        C  0.93879488  0.50412436  0.80556344    -0.25400
C886        C  0.95713538  0.48781890  0.81420243     0.37100
C887        C  0.00059878  0.53151051  0.84735211     0.06600
F888        F  0.95881608  0.56166019  0.83514359    -0.19200
H889        H  0.92502840  0.54151310  0.80733704     0.16500
F890        F  0.95742626  0.46394708  0.80647257    -0.22900
H891        H  0.99121160  0.48401844  0.83442695     0.18300
C892        C  0.99990691  0.54500290  0.86954992     0.26300
C893        C  0.02158457  0.55579712  0.87892822    -0.11400
C894        C  0.04434017  0.55365928  0.86621686    -0.25500
C895        C  0.04505657  0.53965269  0.84422445     0.37200
C896        C  0.02340252  0.52858419  0.83505424    -0.27100
F897        F  0.97825320  0.54784034  0.88208242    -0.19200
H898        H  0.02035538  0.56647725  0.89587192     0.16500
F899        F  0.06655084  0.53679732  0.83143709    -0.22900
H900        H  0.02427636  0.51828699  0.81784398     0.18300
C901        C  0.08476791  0.65925865  0.77045839    -0.27000
C902        C  0.06275008  0.67309050  0.77063715     0.06600
C903        C  0.05074678  0.67752255  0.79334795     0.26200
C904        C  0.06059512  0.66820034  0.81537618    -0.11500
C905        C  0.08234198  0.65388402  0.81520921    -0.25400
C906        C  0.09439450  0.64952701  0.79244172     0.37100
C907        C  0.05230701  0.68302639  0.74726941     0.06600
F908        F  0.02961966  0.69115286  0.79426480    -0.19200
H909        H  0.05087239  0.67175762  0.83255940     0.16500
F910        F  0.11564150  0.63610261  0.79142088    -0.22900
H911        H  0.09431740  0.65567970  0.75318260     0.18300
C912        C  0.06619822  0.69913941  0.73232032     0.26300
C913        C  0.05497283  0.71096837  0.71219658    -0.11400
C914        C  0.02982431  0.70686844  0.70670347    -0.25500
C915        C  0.01644619  0.68952477  0.72062386     0.37200
C916        C  0.02762884  0.67771140  0.74069437    -0.27100
F917        F  0.08996426  0.70497609  0.73835956    -0.19200
H918        H  0.06536825  0.72472771  0.70206589     0.16500
F919        F  0.99206503  0.68529298  0.71577691    -0.22900
H920        H  0.01670741  0.66512570  0.75176332     0.18300
C921        C  0.98372017  0.97037267  0.82896746    -0.27000
C922        C  0.00686793  0.96509034  0.83975800     0.06600
C923        C  0.00786360  0.94870403  0.85974694     0.26200
C924        C  0.98624022  0.93706707  0.86804146    -0.11500
C925        C  0.96313282  0.94159170  0.85668466    -0.25400
C926        C  0.96203888  0.95877106  0.83726457     0.37100
C927        C  0.02984096  0.97569673  0.82896914     0.06600
F928        F  0.02976098  0.94390034  0.87119916    -0.19200
H929        H  0.98767142  0.92421267  0.88324902     0.16500
F930        F  0.94030809  0.96352002  0.82548449    -0.22900
H931        H  0.98257219  0.98287456  0.81343648     0.18300
C932        C  0.04894256  0.96025603  0.82009852     0.26300
C933        C  0.06840482  0.97007492  0.80603096    -0.11400
C934        C  0.06900428  0.99532855  0.80052025    -0.25500
C935        C  0.05099074  0.01099022  0.81103462     0.37200
C936        C  0.03155596  0.00120966  0.82503868    -0.27100
F937        F  0.04757097  0.93543458  0.82303445    -0.19200
H938        H  0.08179613  0.95766742  0.79769064     0.16500
F939        F  0.05120859  0.03554053  0.80615654    -0.22900
H940        H  0.01716028  0.01342495  0.83185226     0.18300
C941        C  0.85032131  0.01185371  0.93301232    -0.27000
C942        C  0.83391290  0.01035060  0.95303561     0.06600
C943        C  0.82744096  0.98692229  0.96218394     0.26200
C944        C  0.83705036  0.96547407  0.95122739    -0.11500
C945        C  0.85320047  0.96688494  0.93085538    -0.25400
C946        C  0.85998493  0.99048871  0.92206863     0.37100
C947        C  0.82220936  0.03307511  0.96311789     0.06600
F948        F  0.81088732  0.98471014  0.98096870    -0.19200
H949        H  0.83131991  0.94771570  0.95834570     0.16500
F950        F  0.87579754  0.99310721  0.90272019    -0.22900
H951        H  0.85552603  0.02969619  0.92568476     0.18300
C952        C  0.82218948  0.03805205  0.98866648     0.26300
C953        C  0.80764342  0.05721564  0.99822149    -0.11400
C954        C  0.79319497  0.07189274  0.98245935    -0.25500
C955        C  0.79480241  0.06827643  0.95679475     0.37200
C956        C  0.80927103  0.04901707  0.94721609    -0.27100
F957        F  0.83545418  0.02378647  0.00444292    -0.19200
H958        H  0.80645952  0.05969467  0.01808121     0.16500
F959        F  0.78060551  0.08186175  0.94121219    -0.22900
H960        H  0.80910216  0.04557251  0.92746645     0.18300
C961        C  0.96494182  0.83646659  0.98448420    -0.27000
C962        C  0.95342114  0.84112484  0.00739691     0.06600
C963        C  0.93202293  0.85596025  0.00788026     0.26200
C964        C  0.92181703  0.86486794  0.98587296    -0.11500
C965        C  0.93277931  0.85950142  0.96278981    -0.25400
C966        C  0.95485141  0.84555991  0.96242150     0.37100
C967        C  0.96324108  0.82946719  0.03034149     0.06600
F968        F  0.92100765  0.86202095  0.02965056    -0.19200
H969        H  0.90507923  0.87588123  0.98699270     0.16500
F970        F  0.96645608  0.84018833  0.94078740    -0.22900
H971        H  0.98146109  0.82511122  0.98356615     0.18300
C972        C  0.94744477  0.81618018  0.04626684     0.26300
C973        C  0.95730937  0.80258558  0.06591234    -0.11400
C974        C  0.98302816  0.80162101  0.06986183    -0.25500
C975        C  0.99874920  0.81562942  0.05465945     0.37200
C976        C  0.98890104  0.82957733  0.03524048    -0.27100
F977        F  0.92275082  0.81438211  0.04151946    -0.19200
H978        H  0.94502630  0.79107874  0.07675923     0.16500
F979        F  0.02376564  0.81427356  0.05743550    -0.22900
H980        H  0.00146301  0.83959537  0.02329587     0.18300
C981        C  0.95840316  0.82209283  0.78701379    -0.27000
C982        C  0.94256577  0.81769704  0.76678171     0.06600
C983        C  0.91724718  0.82337205  0.76908437     0.26200
C984        C  0.90797335  0.83302347  0.79124719    -0.11500
C985        C  0.92367670  0.83728521  0.81172390    -0.25400
C986        C  0.94915144  0.83179408  0.80926463     0.37100
C987        C  0.95223200  0.80557524  0.74405716     0.06600
F988        F  0.90150116  0.81987134  0.74975487    -0.19200
H989        H  0.88836518  0.83733366  0.79223518     0.16500
F990        F  0.96517575  0.83568245  0.82826951    -0.22900
H991        H  0.97794117  0.81752122  0.78574074     0.18300
C992        C  0.97348630  0.81455086  0.73188410     0.26300
C993        C  0.98424723  0.80095534  0.71256644    -0.11400
C994        C  0.97401775  0.77826304  0.70524247    -0.25500
C995        C  0.95200589  0.77001047  0.71639500     0.37200
C996        C  0.94115999  0.78363715  0.73554248    -0.27100
F997        F  0.98430339  0.83599309  0.73924017    -0.19200
H998        H  0.00145396  0.80732628  0.70441421     0.16500
F999        F  0.94201774  0.74789532  0.70989887    -0.22900
H1000       H  0.92489809  0.77628846  0.74471210     0.18300
C1001       C  0.73222917  0.95864725  0.80457113    -0.27000
C1002       C  0.75104457  0.94699200  0.79079298     0.06600
C1003       C  0.74911484  0.94612769  0.76491259     0.26200
C1004       C  0.72956828  0.95809578  0.75303112    -0.11500
C1005       C  0.71166527  0.97124686  0.76666456    -0.25400
C1006       C  0.71259348  0.97066609  0.79262803     0.37100
C1007       C  0.77364427  0.93757747  0.80315359     0.06600
F1008       F  0.76715181  0.93537772  0.75103035    -0.19200
H1009       H  0.72917527  0.95831323  0.73299590     0.16500
F1010       F  0.69572406  0.98330389  0.80635114    -0.22900
H1011       H  0.73331884  0.95926801  0.82457007     0.18300
C1012       C  0.78817094  0.95331962  0.81801804     0.26300
C1013       C  0.81017449  0.94476707  0.82866799    -0.11400
C1014       C  0.81791629  0.92028399  0.82500350    -0.25500
C1015       C  0.80339844  0.90454703  0.81000699     0.37200
C1016       C  0.78155802  0.91323167  0.79908715    -0.27100
F1017       F  0.78130328  0.97712138  0.82188389    -0.19200
H1018       H  0.82084879  0.95716260  0.84032500     0.16500
F1019       F  0.81036081  0.88082965  0.80575236    -0.22900
H1020       H  0.77068557  0.90088922  0.78755539     0.18300
C1021       C  0.92486797  0.17161817  0.73036253    -0.27000
C1022       C  0.94763089  0.18422204  0.72940878     0.06600
C1023       C  0.95899482  0.18777670  0.70623416     0.26200
C1024       C  0.94817883  0.17826581  0.68465967    -0.11500
C1025       C  0.92590903  0.16481301  0.68565521    -0.25400
C1026       C  0.91410580  0.16191587  0.70877640     0.37100
C1027       C  0.95987131  0.19330351  0.75243056     0.06600
F1028       F  0.98062426  0.20052210  0.70442959    -0.19200
H1029       H  0.95767713  0.18083178  0.66720775     0.16500
F1030       F  0.89220372  0.14963383  0.71059492    -0.22900
H1031       H  0.91571249  0.16873601  0.74794415     0.18300
C1032       C  0.94736305  0.20876331  0.76935128     0.26300
C1033       C  0.96033785  0.21978774  0.78906502    -0.11400
C1034       C  0.98586942  0.21552619  0.79217800    -0.25500
C1035       C  0.99787243  0.19870507  0.77632687     0.37200
C1036       C  0.98495231  0.18766042  0.75676526    -0.27100
F1037       F  0.92314620  0.21469156  0.76576954    -0.19200
H1038       H  0.95087045  0.23298945  0.80083612     0.16500
F1039       F  0.02251104  0.19408617  0.77893687    -0.22900
H1040       H  0.99483124  0.17537428  0.74434989     0.18300
C1041       C  0.95531742  0.14309951  0.49221392    -0.27000
C1042       C  0.96608373  0.16661807  0.49217621     0.06600
C1043       C  0.96921632  0.17935758  0.51463417     0.26200
C1044       C  0.96085960  0.16906980  0.53674289    -0.11500
C1045       C  0.94943013  0.14575942  0.53693842    -0.25400
C1046       C  0.94726252  0.13254977  0.51441075     0.37100
C1047       C  0.97306044  0.17868025  0.46878690     0.06600
F1048       F  0.97945678  0.20225301  0.51499970    -0.19200
H1049       H  0.96280621  0.17966801  0.55367303     0.16500
F1050       F  0.93633200  0.10997917  0.51354896    -0.22900
H1051       H  0.95282075  0.13309288  0.47499236     0.18300
C1052       C  0.99814345  0.18310773  0.46339964     0.26300
C1053       C  0.00460873  0.19912398  0.44429731    -0.11400
C1054       C  0.98615601  0.21096692  0.43039336    -0.25500
C1055       C  0.96107110  0.20528452  0.43469688     0.37200
C1056       C  0.95459494  0.18907382  0.45374279    -0.27100
F1057       F  0.01627898  0.17324396  0.47770931    -0.19200
H1058       H  0.02398898  0.20371242  0.44150313     0.16500
F1059       F  0.94287630  0.21716235  0.42209602    -0.22900
H1060       H  0.93515913  0.18603803  0.45791338     0.18300
C1061       C  0.98320230  0.05190599  0.68572414    -0.27000
C1062       C  0.00537854  0.04869747  0.67241299     0.06600
C1063       C  0.00498607  0.05138986  0.64661286     0.26200
C1064       C  0.98307282  0.05856457  0.63464675    -0.11500
C1065       C  0.96109715  0.06312739  0.64813596    -0.25400
C1066       C  0.96130053  0.05901923  0.67384039     0.37100
C1067       C  0.02877414  0.04352647  0.68598641     0.06600
F1068       F  0.02605555  0.04841478  0.63315596    -0.19200
H1069       H  0.98362945  0.06147324  0.61485382     0.16500
F1070       F  0.94066528  0.06274159  0.68775742    -0.22900
H1071       H  0.98298799  0.04939034  0.70558974     0.18300
C1072       C  0.03569656  0.05859233  0.70608891     0.26300
C1073       C  0.05538573  0.05182135  0.72136366    -0.11400
C1074       C  0.06864629  0.03000444  0.71689623    -0.25500
C1075       C  0.06306867  0.01582553  0.69576750     0.37200
C1076       C  0.04324780  0.02263522  0.68034245    -0.27100
F1077       F  0.02271318  0.07936802  0.71158582    -0.19200
H1078       H  0.05934544  0.06284048  0.73767469     0.16500
F1079       F  0.07540139  0.99444612  0.69122289    -0.22900
H1080       H  0.03826214  0.01080794  0.66491599     0.18300
C1081       C  0.82425187  0.21725334  0.54391548    -0.27000
C1082       C  0.82936314  0.24009781  0.55533675     0.06600
C1083       C  0.84379120  0.24037355  0.57702397     0.26200
C1084       C  0.85369109  0.21839425  0.58634642    -0.11500
C1085       C  0.84919701  0.19560367  0.57449020    -0.25400
C1086       C  0.83400623  0.19525903  0.55330021     0.37100
C1087       C  0.81954078  0.26332353  0.54435752     0.06600
F1088       F  0.84904928  0.26195296  0.58876083    -0.19200
H1089       H  0.86514244  0.21927555  0.60280362     0.16500
F1090       F  0.82922673  0.17383263  0.54108984    -0.22900
H1091       H  0.81269530  0.21642930  0.52752945     0.18300
C1092       C  0.82161449  0.26761929  0.51877614     0.26300
C1093       C  0.80931760  0.28754206  0.50792963    -0.11400
C1094       C  0.79488706  0.30370331  0.52231615    -0.25500
C1095       C  0.79432305  0.30061166  0.54807658     0.37200
C1096       C  0.80655887  0.28056771  0.55899418    -0.27100
F1097       F  0.83469301  0.25195143  0.50407843    -0.19200
H1098       H  0.80962026  0.28938854  0.48798866     0.16500
F1099       F  0.78000285  0.31557030  0.56233727    -0.22900
H1100       H  0.80453934  0.27766639  0.57868727     0.18300
C1101       C  0.82942731  0.02055158  0.53405334    -0.27000
C1102       C  0.84392413  0.99904242  0.53500760     0.06600
C1103       C  0.86786362  0.00027526  0.54510442     0.26200
C1104       C  0.87698286  0.02264473  0.55439976    -0.11500
C1105       C  0.86230909  0.04421055  0.55412308    -0.25400
C1106       C  0.83835875  0.04290347  0.54365118     0.37100
C1107       C  0.83330964  0.97535207  0.52629257     0.06600
F1108       F  0.88239120  0.97984062  0.54599064    -0.19200
H1109       H  0.89546266  0.02288714  0.56232216     0.16500
F1110       F  0.82332321  0.06297965  0.54308438    -0.22900
H1111       H  0.81081725  0.01984502  0.52643206     0.18300
C1112       C  0.82869496  0.95602760  0.54296693     0.26300
C1113       C  0.81405959  0.93584984  0.53571808    -0.11400
C1114       C  0.80399939  0.93473887  0.51179724    -0.25500
C1115       C  0.81068387  0.95288518  0.49450574     0.37200
C1116       C  0.82505858  0.97311610  0.50179482    -0.27100
F1117       F  0.83630821  0.95780757  0.56684474    -0.19200
H1118       H  0.80876048  0.92228591  0.54938491     0.16500
F1119       F  0.80140493  0.95211097  0.47116047    -0.22900
H1120       H  0.82864108  0.98772999  0.48867388     0.18300
C1121       C  0.78793174  0.07876364  0.68785288    -0.27000
C1122       C  0.76647830  0.07668156  0.67317691     0.06600
C1123       C  0.76760177  0.08355038  0.64823165     0.26200
C1124       C  0.79002744  0.09147855  0.63797363    -0.11500
C1125       C  0.81190923  0.09254135  0.65228777    -0.25400
C1126       C  0.81050173  0.08651422  0.67755639     0.37100
C1127       C  0.74374370  0.06524900  0.68348335     0.06600
F1128       F  0.74705564  0.08226518  0.63371147    -0.19200
H1129       H  0.79033242  0.09619192  0.61853317     0.16500
F1130       F  0.83087986  0.08788307  0.69228100    -0.22900
H1131       H  0.78738385  0.07352610  0.70715555     0.18300
C1132       C  0.73493270  0.04278947  0.67371945     0.26300
C1133       C  0.71595261  0.02994309  0.68572530    -0.11400
C1134       C  0.70529660  0.03936473  0.70747810    -0.25500
C1135       C  0.71305110  0.06250611  0.71643243     0.37200
C1136       C  0.73223701  0.07530055  0.70454581    -0.27100
F1137       F  0.74613904  0.03224785  0.65381980    -0.19200
H1138       H  0.71076235  0.01177520  0.67904962     0.16500
F1139       F  0.70353388  0.07168097  0.73781353    -0.22900
H1140       H  0.73885473  0.09253318  0.71235926     0.18300
C1141       C  0.81545974  0.73435461  0.95703253    -0.27000
C1142       C  0.80133921  0.74873995  0.94065230     0.06600
C1143       C  0.77709320  0.74110838  0.93462262     0.26200
C1144       C  0.76660287  0.72061897  0.94632057    -0.11500
C1145       C  0.78018177  0.70726115  0.96392802    -0.25400
C1146       C  0.80499025  0.71375758  0.96859035     0.37100
C1147       C  0.81128933  0.77252784  0.93136726     0.06600
F1148       F  0.76282768  0.75466838  0.91907836    -0.19200
H1149       H  0.74723091  0.71627254  0.94304350     0.16500
F1150       F  0.81829316  0.70155921  0.98599821    -0.22900
H1151       H  0.83426653  0.73974953  0.96170508     0.18300
C1152       C  0.82012953  0.79061959  0.94794512     0.26300
C1153       C  0.82957030  0.81298071  0.93913357    -0.11400
C1154       C  0.83057735  0.81773974  0.91361802    -0.25500
C1155       C  0.82113223  0.79980242  0.89707496     0.37200
C1156       C  0.81155617  0.77751047  0.90593874    -0.27100
F1157       F  0.81940469  0.78677547  0.97272353    -0.19200
H1158       H  0.83669328  0.82632985  0.95232287     0.16500
F1159       F  0.82120429  0.80367502  0.87229394    -0.22900
H1160       H  0.80469115  0.76390905  0.89286955     0.18300
C1161       C  0.52336833  0.96650770  0.17751208    -0.27000
C1162       C  0.50046068  0.95623530  0.17030152     0.06600
C1163       C  0.50038825  0.93563734  0.15445790     0.26200
C1164       C  0.52275680  0.92500810  0.14684315    -0.11500
C1165       C  0.54576455  0.93473129  0.15464367    -0.25400
C1166       C  0.54581702  0.95596495  0.16978955     0.37100
C1167       C  0.47700583  0.96635096  0.18064125     0.06600
F1168       F  0.47869010  0.92580143  0.14624142    -0.19200
H1169       H  0.52197336  0.90893960  0.13487976     0.16500
F1170       F  0.56742305  0.96620168  0.17774947    -0.22900
H1171       H  0.52389033  0.98233711  0.18981722     0.18300
C1172       C  0.45989927  0.95087578  0.19277773     0.26300
C1173       C  0.44030882  0.96106400  0.20638320    -0.11400
C1174       C  0.43767142  0.98671767  0.20835967    -0.25500
C1175       C  0.45358016  0.00210846  0.19480678     0.37200
C1176       C  0.47301517  0.99196696  0.18097745    -0.27100
F1177       F  0.46354973  0.92611849  0.19368183    -0.19200
H1178       H  0.42865569  0.94900712  0.21731740     0.16500
F1179       F  0.45161202  0.02701205  0.19675679    -0.22900
H1180       H  0.48583004  0.00421098  0.17166188     0.18300
C1181       C  0.77832004  0.97067623  0.19449961    -0.27000
C1182       C  0.76535866  0.95166919  0.20654517     0.06600
C1183       C  0.77422159  0.94296075  0.22932707     0.26200
C1184       C  0.79474312  0.95407803  0.24051496    -0.11500
C1185       C  0.80678722  0.97403145  0.22924087    -0.25400
C1186       C  0.79898584  0.98180477  0.20576239     0.37100
C1187       C  0.74190037  0.94171872  0.19620099     0.06600
F1188       F  0.76182665  0.92504300  0.24171004    -0.19200
H1189       H  0.80016318  0.94831423  0.25890390     0.16500
F1190       F  0.81011462  0.00132245  0.19469328    -0.22900
H1191       H  0.77187145  0.97745477  0.17681796     0.18300
C1192       C  0.72153613  0.95724584  0.19154485     0.26300
C1193       C  0.69900575  0.94733883  0.18310036    -0.11400
C1194       C  0.69637231  0.92177850  0.17906035    -0.25500
C1195       C  0.71693171  0.90632868  0.18387357     0.37200
C1196       C  0.73932145  0.91627026  0.19236833    -0.27100
F1197       F  0.72325459  0.98191182  0.19572158    -0.19200
H1198       H  0.68369578  0.95975766  0.17949165     0.16500
F1199       F  0.71569257  0.88157650  0.18012378    -0.22900
H1200       H  0.75480604  0.90402835  0.19590496     0.18300
C1201       C  0.67895453  0.98431619  0.04472719    -0.27000
C1202       C  0.67386813  0.00760222  0.05517607     0.06600
C1203       C  0.65819223  0.00897011  0.07587482     0.26200
C1204       C  0.64879973  0.98746113  0.08651707    -0.11500
C1205       C  0.65463284  0.96400854  0.07675010    -0.25400
C1206       C  0.66945028  0.96271421  0.05530566     0.37100
C1207       C  0.68560920  0.03016015  0.04481911     0.06600
F1208       F  0.65182181  0.03113735  0.08578548    -0.19200
H1209       H  0.63714665  0.98926502  0.10273953     0.16500
F1210       F  0.67525061  0.94066057  0.04480796    -0.22900
H1211       H  0.69090977  0.98279502  0.02868905     0.18300
C1212       C  0.69881894  0.04675561  0.06012364     0.26300
C1213       C  0.71200035  0.06646634  0.04978715    -0.11400
C1214       C  0.71244788  0.06980835  0.02410683    -0.25500
C1215       C  0.69855571  0.05383837  0.00890295     0.37200
C1216       C  0.68518254  0.03428805  0.01919954    -0.27100
F1217       F  0.70068771  0.04278723  0.08482077    -0.19200
H1218       H  0.72334565  0.07803880  0.06166407     0.16500
F1219       F  0.69927709  0.05624536  0.98393803    -0.22900
H1220       H  0.67517113  0.02181175  0.00705696     0.18300
C1221       C  0.53514603  0.81447101  0.27348322    -0.27000
C1222       C  0.55852834  0.80574465  0.26575575     0.06600
C1223       C  0.57060653  0.78797392  0.28054061     0.26200
C1224       C  0.55863782  0.77792257  0.30120274    -0.11500
C1225       C  0.53446001  0.78519575  0.30747408    -0.25400
C1226       C  0.52308106  0.80409397  0.29387546     0.37100
C1227       C  0.56952908  0.81438677  0.24185723     0.06600
F1228       F  0.59307855  0.77872776  0.27396998    -0.19200
H1229       H  0.56744208  0.76294411  0.31108331     0.16500
F1230       F  0.49951144  0.81119390  0.29923445    -0.22900
H1231       H  0.52570025  0.82870967  0.26313176     0.18300
C1232       C  0.55476893  0.81720684  0.22043909     0.26300
C1233       C  0.56513693  0.82609955  0.19841622    -0.11400
C1234       C  0.59053281  0.83196857  0.19694566    -0.25500
C1235       C  0.60549713  0.82794117  0.21801296     0.37200
C1236       C  0.59500931  0.81969356  0.24015895    -0.27100
F1237       F  0.53031215  0.81111698  0.22059826    -0.19200
H1238       H  0.55312109  0.82869531  0.18257302     0.16500
F1239       F  0.63028707  0.83248271  0.21757376    -0.22900
H1240       H  0.60690539  0.81798342  0.25619948     0.18300
C1241       C  0.69398436  0.73365431  0.05015775    -0.27000
C1242       C  0.70972986  0.74840389  0.06481059     0.06600
C1243       C  0.73475438  0.74167295  0.06749551     0.26200
C1244       C  0.74420214  0.72156143  0.05425742    -0.11500
C1245       C  0.72883889  0.70781396  0.03832904    -0.25400
C1246       C  0.70344644  0.71344309  0.03698483     0.37100
C1247       C  0.70057208  0.77203347  0.07513429     0.06600
F1248       F  0.75049952  0.75580038  0.08115283    -0.19200
H1249       H  0.76394654  0.71778395  0.05500638     0.16500
F1250       F  0.68833300  0.70077564  0.02133176    -0.22900
H1251       H  0.67460924  0.73856524  0.04798759     0.18300
C1252       C  0.69147542  0.79036758  0.05926548     0.26300
C1253       C  0.68230901  0.81251865  0.06887891    -0.11400
C1254       C  0.68178896  0.81679176  0.09453859    -0.25500
C1255       C  0.69173519  0.79867385  0.11040119     0.37200
C1256       C  0.70115470  0.77657186  0.10068177    -0.27100
F1257       F  0.69150449  0.78684130  0.03439181    -0.19200
H1258       H  0.67486622  0.82602203  0.05617893     0.16500
F1259       F  0.69212656  0.80210107  0.13528493    -0.22900
H1260       H  0.70841903  0.76274078  0.11313448     0.18300
C1261       C  0.23793574  0.52633364  0.18290760    -0.27000
C1262       C  0.24810424  0.54800892  0.19317306     0.06600
C1263       C  0.23692346  0.55835491  0.21435917     0.26200
C1264       C  0.21732841  0.54618392  0.22604474    -0.11500
C1265       C  0.20852648  0.52360025  0.21685404    -0.25400
C1266       C  0.21834177  0.51412640  0.19471710     0.37100
C1267       C  0.27146925  0.55868063  0.18318125     0.06600
F1268       F  0.24637225  0.57902098  0.22509334    -0.19200
H1269       H  0.21034807  0.55337245  0.24343531     0.16500
F1270       F  0.21026837  0.49213730  0.18564524    -0.22900
H1271       H  0.24593896  0.51825795  0.16637638     0.18300
C1272       C  0.29262524  0.54385877  0.17943955     0.26300
C1273       C  0.31509688  0.55443536  0.17183377    -0.11400
C1274       C  0.31703042  0.58000047  0.16781869    -0.25500
C1275       C  0.29565757  0.59472497  0.17134405     0.37200
C1276       C  0.27324947  0.58410941  0.17886776    -0.27100
F1277       F  0.29182422  0.51923928  0.18388314    -0.19200
H1278       H  0.33101011  0.54252930  0.16908194     0.16500
F1279       F  0.29616087  0.61942694  0.16736594    -0.22900
H1280       H  0.25717232  0.59585878  0.18137962     0.18300
C1281       C  0.31654987  0.45706770  0.05328984    -0.27000
C1282       C  0.32839411  0.47321728  0.03673646     0.06600
C1283       C  0.32680614  0.46821279  0.01120160     0.26200
C1284       C  0.31186674  0.44883613  0.00248167    -0.11500
C1285       C  0.29868561  0.43385033  0.01903640    -0.25400
C1286       C  0.30178383  0.43760083  0.04455227     0.37100
C1287       C  0.34081017  0.49592584  0.04639578     0.06600
F1288       F  0.33902469  0.48252385  0.99465764    -0.19200
H1289       H  0.30938011  0.44643114  0.98273423     0.16500
F1290       F  0.28871236  0.42385891  0.06094823    -0.22900
H1291       H  0.31747102  0.46044966  0.07302676     0.18300
C1292       C  0.33493901  0.51947823  0.03707910     0.26300
C1293       C  0.34479074  0.54084127  0.04815474    -0.11400
C1294       C  0.36053605  0.53927460  0.06886451    -0.25500
C1295       C  0.36687230  0.51556833  0.07768596     0.37200
C1296       C  0.35707892  0.49431896  0.06657674    -0.27100
F1297       F  0.31854339  0.52197746  0.01818152    -0.19200
H1298       H  0.33939471  0.55867326  0.04097657     0.16500
F1299       F  0.38211237  0.51271970  0.09747077    -0.22900
H1300       H  0.36191697  0.47645413  0.07408137     0.18300
C1301       C  0.32536900  0.73234759  0.09345785    -0.27000
C1302       C  0.31841759  0.73368037  0.06845463     0.06600
C1303       C  0.32041789  0.71224741  0.05373420     0.26200
C1304       C  0.32962012  0.69026832  0.06370417    -0.11500
C1305       C  0.33701005  0.68894046  0.08862525    -0.25400
C1306       C  0.33451898  0.71032621  0.10350297     0.37100
C1307       C  0.30887768  0.75720383  0.05775573     0.06600
F1308       F  0.31310136  0.71238616  0.02970613    -0.19200
H1309       H  0.33115806  0.67427648  0.05171830     0.16500
F1310       F  0.34140272  0.71028051  0.12765387    -0.22900
H1311       H  0.32415989  0.74856137  0.10518206     0.18300
C1312       C  0.28970501  0.77062154  0.06940278     0.26300
C1313       C  0.27877475  0.79083918  0.05752053    -0.11400
C1314       C  0.28680991  0.79810886  0.03397282    -0.25500
C1315       C  0.30685245  0.78569055  0.02297217     0.37200
C1316       C  0.31789369  0.76558743  0.03485890    -0.27100
F1317       F  0.28017238  0.76305250  0.09132094    -0.19200
H1318       H  0.26286325  0.79976054  0.06593393     0.16500
F1319       F  0.31452958  0.79191276  0.99992418    -0.22900
H1320       H  0.33290524  0.75591975  0.02568036     0.18300
C1321       C  0.45758904  0.67947683  0.22257608    -0.27000
C1322       C  0.44127308  0.68369057  0.24244847     0.06600
C1323       C  0.41580950  0.67908682  0.23887043     0.26200
C1324       C  0.40701763  0.67029269  0.21601573    -0.11500
C1325       C  0.42331630  0.66599078  0.19602785    -0.25400
C1326       C  0.44883053  0.67080606  0.19966222     0.37100
C1327       C  0.45088958  0.69411006  0.26625159     0.06600
F1328       F  0.39945033  0.68260047  0.25764982    -0.19200
H1329       H  0.38733737  0.66665002  0.21408450     0.16500
F1330       F  0.46547586  0.66705126  0.18119547    -0.22900
H1331       H  0.47722589  0.68328227  0.22469026     0.18300
C1332       C  0.47163221  0.68370892  0.27823613     0.26300
C1333       C  0.48270976  0.69579041  0.29847350    -0.11400
C1334       C  0.47327291  0.71835496  0.30717826    -0.25500
C1335       C  0.45175140  0.72801776  0.29613804     0.37200
C1336       C  0.44060540  0.71592087  0.27600901    -0.27100
F1337       F  0.48171789  0.66231728  0.26981798    -0.19200
H1338       H  0.49960457  0.68834228  0.30634459     0.16500
F1339       F  0.44268742  0.75019617  0.30362064    -0.22900
H1340       H  0.42481753  0.72444968  0.26705890     0.18300
C1341       C  0.56099100  0.81177534  0.96578281    -0.27000
C1342       C  0.54471007  0.82458894  0.98158943     0.06600
C1343       C  0.51923690  0.82500267  0.97588101     0.26200
C1344       C  0.51008479  0.81124954  0.95583950    -0.11500
C1345       C  0.52619610  0.79710910  0.94104972    -0.25400
C1346       C  0.55183177  0.79803662  0.94574360     0.37100
C1347       C  0.55441948  0.83622673  0.00459091     0.06600
F1348       F  0.50315043  0.83803288  0.99017037    -0.19200
H1349       H  0.49022040  0.81040485  0.95274328     0.16500
F1350       F  0.56771375  0.78384847  0.93235885    -0.22900
H1351       H  0.58068894  0.81124111  0.96983497     0.18300
C1352       C  0.54550400  0.82925922  0.02803792     0.26300
C1353       C  0.55635661  0.83888164  0.04965360    -0.11400
C1354       C  0.57633323  0.85556311  0.04832167    -0.25500
C1355       C  0.58465542  0.86299997  0.02468594     0.37200
C1356       C  0.57390101  0.85327307  0.00321707    -0.27100
F1357       F  0.52711665  0.81224154  0.03005449    -0.19200
H1358       H  0.54958436  0.83269639  0.06743490     0.16500
F1359       F  0.60340223  0.87955130  0.02212806    -0.22900
H1360       H  0.58097380  0.85893256  0.98536236     0.18300
C1361       C  0.44522477  0.65158733  0.99958075    -0.27000
C1362       C  0.46061651  0.67233773  0.00201263     0.06600
C1363       C  0.46517124  0.68201340  0.02583141     0.26200
C1364       C  0.45459183  0.67103835  0.04671112    -0.11500
C1365       C  0.43893029  0.65043709  0.04432558    -0.25400
C1366       C  0.43450817  0.64066865  0.02043540     0.37100
C1367       C  0.47119041  0.68445037  0.97975453     0.06600
F1368       F  0.47898363  0.70277635  0.02884481    -0.19200
H1369       H  0.45800719  0.67921423  0.06471828     0.16500
F1370       F  0.41986949  0.62050922  0.01713969    -0.22900
H1371       H  0.44149166  0.64382035  0.98145141     0.18300
C1372       C  0.49665850  0.69000059  0.97852484     0.26300
C1373       C  0.50583648  0.70478894  0.95952938    -0.11400
C1374       C  0.48989877  0.71419553  0.94128377    -0.25500
C1375       C  0.46483185  0.70698379  0.94125888     0.37200
C1376       C  0.45557808  0.69214733  0.96037300    -0.27100
F1377       F  0.51251714  0.68188117  0.99622803    -0.19200
H1378       H  0.52523787  0.71010967  0.95981745     0.16500
F1379       F  0.44893381  0.71598018  0.92403585    -0.22900
H1380       H  0.43591927  0.68793204  0.96085510     0.18300
C1381       C  0.53938127  0.51074028  0.18432363    -0.27000
C1382       C  0.53576602  0.53612856  0.18062983     0.06600
C1383       C  0.55327495  0.55279646  0.19068942     0.26200
C1384       C  0.57305612  0.54420560  0.20522197    -0.11500
C1385       C  0.57570799  0.51893825  0.21008114    -0.25400
C1386       C  0.55910018  0.50221278  0.19888049     0.37100
C1387       C  0.51265621  0.54516469  0.16833412     0.06600
F1388       F  0.55006283  0.57751257  0.18833995    -0.19200
H1389       H  0.58513058  0.55744050  0.21430372     0.16500
F1390       F  0.56093761  0.47769868  0.20356223    -0.22900
H1391       H  0.52629497  0.49752998  0.17673644     0.18300
C1392       C  0.51361908  0.56300863  0.14960040     0.26300
C1393       C  0.49171831  0.57323072  0.14016704    -0.11400
C1394       C  0.46821963  0.56582002  0.14893893    -0.25500
C1395       C  0.46721803  0.54686153  0.16665311     0.37200
C1396       C  0.48921925  0.53675027  0.17623193    -0.27100
F1397       F  0.53576741  0.57064556  0.14041477    -0.19200
H1398       H  0.49324846  0.58736249  0.12616075     0.16500
F1399       F  0.44511101  0.53879041  0.17554608    -0.22900
H1400       H  0.48793613  0.52291816  0.19056251     0.18300
C1401       C  0.32064084  0.52106648  0.50609653    -0.27000
C1402       C  0.33065574  0.51911729  0.48221816     0.06600
C1403       C  0.32705442  0.53868796  0.46553363     0.26200
C1404       C  0.31260694  0.55918043  0.47226572    -0.11500
C1405       C  0.30145454  0.56045287  0.49566771    -0.25400
C1406       C  0.30628414  0.54156020  0.51283697     0.37100
C1407       C  0.34310773  0.49594366  0.47412248     0.06600
F1408       F  0.33582627  0.53706860  0.44205995    -0.19200
H1409       H  0.30858926  0.57313855  0.45857136     0.16500
F1410       F  0.29575153  0.54223390  0.53564125    -0.22900
H1411       H  0.32325852  0.50628784  0.51925174     0.18300
C1412       C  0.36720109  0.49635998  0.46423754     0.26300
C1413       C  0.37778363  0.47484326  0.45443421    -0.11400
C1414       C  0.36452854  0.45240774  0.45399839    -0.25500
C1415       C  0.34072644  0.45181786  0.46491379     0.37200
C1416       C  0.33028088  0.47336124  0.47497608    -0.27100
F1417       F  0.38039378  0.51769968  0.46377255    -0.19200
H1418       H  0.39613644  0.47603240  0.44633785     0.16500
F1419       F  0.32724729  0.43064971  0.46538613    -0.22900
H1420       H  0.31169804  0.47261527  0.48261955     0.18300
C1421       C  0.51316174  0.45234348  0.36192556    -0.27000
C1422       C  0.51167718  0.46331579  0.33852031     0.06600
C1423       C  0.48851802  0.46366773  0.32635880     0.26200
C1424       C  0.46748638  0.45302949  0.33728745    -0.11500
C1425       C  0.46886936  0.44194386  0.36070554    -0.25400
C1426       C  0.49205159  0.44195363  0.37304348     0.37100
C1427       C  0.53427590  0.47367102  0.32636322     0.06600
F1428       F  0.48640338  0.47349566  0.30341579    -0.19200
H1429       H  0.45009914  0.45321628  0.32719855     0.16500
F1430       F  0.49463757  0.43119186  0.39550786    -0.22900
H1431       H  0.53077336  0.45177449  0.37161155     0.18300
C1432       C  0.53429874  0.49793356  0.31732587     0.26300
C1433       C  0.55387942  0.50633844  0.30259859    -0.11400
C1434       C  0.57382701  0.49074213  0.29625098    -0.25500
C1435       C  0.57490259  0.46718381  0.30703419     0.37200
C1436       C  0.55529697  0.45879601  0.32204190    -0.27100
F1437       F  0.51487296  0.51323215  0.32193087    -0.19200
H1438       H  0.55270450  0.52467107  0.29478631     0.16500
F1439       F  0.59374269  0.45153446  0.30137865    -0.22900
H1440       H  0.55580904  0.44010420  0.32900781     0.18300
C1441       C  0.29587060  0.22824007  0.43678584    -0.27000
C1442       C  0.31807561  0.23686266  0.44734298     0.06600
C1443       C  0.32770324  0.22476500  0.46825548     0.26200
C1444       C  0.31421142  0.20571925  0.47950378    -0.11500
C1445       C  0.29116892  0.19830881  0.46986268    -0.25400
C1446       C  0.28258587  0.20904640  0.44784074     0.37100
C1447       C  0.32963520  0.25991462  0.43801538     0.06600
F1448       F  0.34898241  0.23282903  0.47908035    -0.19200
H1449       H  0.32075221  0.19816422  0.49683145     0.16500
F1450       F  0.26017009  0.20246682  0.43835592    -0.22900
H1451       H  0.28822103  0.23720665  0.42062924     0.18300
C1452       C  0.35430033  0.26027439  0.42970680     0.26300
C1453       C  0.36511437  0.28239407  0.42184195    -0.11400
C1454       C  0.35169674  0.30476068  0.42227994    -0.25500
C1455       C  0.32684830  0.30425859  0.43046456     0.37200
C1456       C  0.31597873  0.28201777  0.43806652    -0.27100
F1457       F  0.36785420  0.23917466  0.42895854    -0.19200
H1458       H  0.38423392  0.28199233  0.41564149     0.16500
F1459       F  0.31297984  0.32514669  0.43111168    -0.22900
H1460       H  0.29691571  0.28211149  0.44447760     0.18300
C1461       C  0.30035298  0.44021338  0.31399087    -0.27000
C1462       C  0.27685284  0.43596786  0.32447405     0.06600
C1463       C  0.27537687  0.42324728  0.34695898     0.26200
C1464       C  0.29698498  0.41473155  0.35852142    -0.11500
C1465       C  0.32063044  0.41875559  0.34803123    -0.25400
C1466       C  0.32204326  0.43188791  0.32563261     0.37100
C1467       C  0.25408389  0.44426974  0.31136618     0.06600
F1468       F  0.25298367  0.41834935  0.35735865    -0.19200
H1469       H  0.29509010  0.40475244  0.37571812     0.16500
F1470       F  0.34427179  0.43664002  0.31483820    -0.22900
H1471       H  0.30189325  0.45011178  0.29670049     0.18300
C1472       C  0.23685216  0.46032472  0.32265836     0.26300
C1473       C  0.21685679  0.46983730  0.30900702    -0.11400
C1474       C  0.21379961  0.46345107  0.28399752    -0.25500
C1475       C  0.23026296  0.44638534  0.27318793     0.37200
C1476       C  0.25019250  0.43697465  0.28673772    -0.27100
F1477       F  0.24032154  0.46813998  0.34629597    -0.19200
H1478       H  0.20473250  0.48339328  0.31747199     0.16500
F1479       F  0.22779990  0.43988512  0.24902693    -0.22900
H1480       H  0.26306851  0.42446442  0.27776671     0.18300
C1481       C  0.42653967  0.33628023  0.26868854    -0.27000
C1482       C  0.44665587  0.31987325  0.26901794     0.06600
C1483       C  0.45639918  0.31243765  0.29197514     0.26200
C1484       C  0.44681890  0.32201161  0.31407359    -0.11500
C1485       C  0.42741799  0.33932945  0.31381945    -0.25400
C1486       C  0.41699656  0.34599038  0.29080206     0.37100
C1487       C  0.45787275  0.31067125  0.24562617     0.06600
F1488       F  0.47524970  0.29584836  0.29302146    -0.19200
H1489       H  0.45511415  0.31635652  0.33139518     0.16500
F1490       F  0.39766925  0.36200143  0.28956863    -0.22900
H1491       H  0.41860409  0.34205894  0.25123906     0.18300
C1492       C  0.44365329  0.29785319  0.22784715     0.26300
C1493       C  0.45545036  0.28531564  0.20835778    -0.11400
C1494       C  0.48142930  0.28571529  0.20625718    -0.25500
C1495       C  0.49530740  0.30054504  0.22255859     0.37200
C1496       C  0.48360608  0.31287717  0.24205832    -0.27100
F1497       F  0.41869625  0.29562413  0.23053455    -0.19200
H1498       H  0.44452479  0.27368920  0.19615204     0.16500
F1499       F  0.52044941  0.30133628  0.22083164    -0.22900
H1500       H  0.49483037  0.32312089  0.25520384     0.18300
C1501       C  0.50294928  0.32221457  0.54251887    -0.27000
C1502       C  0.47887851  0.32047622  0.53259773     0.06600
C1503       C  0.46087396  0.30658758  0.54523607     0.26200
C1504       C  0.46732236  0.29322782  0.56631197    -0.11500
C1505       C  0.49182646  0.29333794  0.57509795    -0.25400
C1506       C  0.50947475  0.30854715  0.56353102     0.37100
C1507       C  0.47297323  0.33098083  0.50797955     0.06600
F1508       F  0.43734878  0.30483128  0.53634504    -0.19200
H1509       H  0.45366626  0.28111568  0.57457276     0.16500
F1510       F  0.53349054  0.30835215  0.57117316    -0.22900
H1511       H  0.51709507  0.33274381  0.53301444     0.18300
C1512       C  0.47497753  0.35636984  0.50330657     0.26300
C1513       C  0.46652908  0.36603580  0.48079660    -0.11400
C1514       C  0.45634155  0.35050844  0.46240495    -0.25500
C1515       C  0.45589128  0.32486615  0.46663656     0.37200
C1516       C  0.46403803  0.31534040  0.48919910    -0.27100
F1517       F  0.48383161  0.37194206  0.52096513    -0.19200
H1518       H  0.46725344  0.38580949  0.47806912     0.16500
F1519       F  0.44620923  0.30902685  0.44965051    -0.22900
H1520       H  0.46273832  0.29564444  0.49231293     0.18300
C1521       C  0.48070002  0.00770123  0.31631663    -0.27000
C1522       C  0.48329705  0.03236405  0.32379664     0.06600
C1523       C  0.46492974  0.04956204  0.31700707     0.26200
C1524       C  0.44503475  0.04231254  0.30182257    -0.11500
C1525       C  0.44326011  0.01788194  0.29327171    -0.25400
C1526       C  0.46085559  0.00046893  0.30129799     0.37100
C1527       C  0.50615694  0.04022582  0.33697612     0.06600
F1528       F  0.46722477  0.07368025  0.32351593    -0.19200
H1529       H  0.43199605  0.05607652  0.29540588     0.16500
F1530       F  0.45960479  0.97669355  0.29335280    -0.22900
H1531       H  0.49455485  0.99418575  0.32146677     0.18300
C1532       C  0.50494049  0.05179845  0.36020132     0.26300
C1533       C  0.52667449  0.05986078  0.37191838    -0.11400
C1534       C  0.55007188  0.05685142  0.36060106    -0.25500
C1535       C  0.55126024  0.04467577  0.33755601     0.37200
C1536       C  0.52949686  0.03632936  0.32601615    -0.27100
F1537       F  0.48273309  0.05529514  0.37155010    -0.19200
H1538       H  0.52503969  0.06919208  0.38960346     0.16500
F1539       F  0.57333614  0.04106839  0.32599729    -0.22900
H1540       H  0.53079148  0.02732160  0.30812758     0.18300
C1541       C  0.77222172  0.02791098  0.32661484    -0.27000
C1542       C  0.76845120  0.05340782  0.32435627     0.06600
C1543       C  0.78631474  0.06761416  0.31178209     0.26200
C1544       C  0.80623864  0.05602931  0.29964343    -0.11500
C1545       C  0.80864779  0.03024366  0.30012175    -0.25400
C1546       C  0.79211734  0.01641501  0.31469852     0.37100
C1547       C  0.74490766  0.06445978  0.33349669     0.06600
F1548       F  0.78333805  0.09235500  0.30944726    -0.19200
H1549       H  0.81853749  0.06694774  0.28823340     0.16500
F1550       F  0.79401374  0.99144981  0.31560498    -0.22900
H1551       H  0.75899767  0.01670293  0.33664902     0.18300
C1552       C  0.72184017  0.05489338  0.32571386     0.26300
C1553       C  0.69961502  0.06453884  0.33508469    -0.11400
C1554       C  0.69987241  0.08377227  0.35258684    -0.25500
C1555       C  0.72304826  0.09381486  0.35981143     0.37200
C1556       C  0.74524818  0.08425993  0.35025686    -0.27100
F1557       F  0.72080733  0.03617849  0.30896276    -0.19200
H1558       H  0.68219740  0.05644621  0.32912748     0.16500
F1559       F  0.72438090  0.11278401  0.37625548    -0.22900
H1560       H  0.76278190  0.09196267  0.35640761     0.18300
C1561       C  0.70493467  0.27468509  0.44215188    -0.27000
C1562       C  0.69127547  0.25953772  0.45814487     0.06600
C1563       C  0.68921677  0.26607300  0.48320696     0.26200
C1564       C  0.70183111  0.28676422  0.49234833    -0.11500
C1565       C  0.71674221  0.30109967  0.47666035    -0.25400
C1566       C  0.71779926  0.29523007  0.45135768     0.37100
C1567       C  0.68071946  0.23610513  0.44884768     0.06600
F1568       F  0.67588995  0.25185451  0.49897976    -0.19200
H1569       H  0.70136307  0.29066168  0.51201260     0.16500
F1570       F  0.73306564  0.30796315  0.43606095    -0.22900
H1571       H  0.70678793  0.26974211  0.42280687     0.18300
C1572       C  0.66071187  0.23620255  0.43231979     0.26300
C1573       C  0.65133844  0.21399578  0.42297905    -0.11400
C1574       C  0.66181931  0.19116489  0.42979319    -0.25500
C1575       C  0.68209286  0.19119876  0.44633479     0.37200
C1576       C  0.69130271  0.21351965  0.45583045    -0.27100
F1577       F  0.65002772  0.25780017  0.42549437    -0.19200
H1578       H  0.63568391  0.21476772  0.41042271     0.16500
F1579       F  0.69303926  0.16980858  0.45339085    -0.22900
H1580       H  0.70694203  0.21323728  0.46844798     0.18300
C1581       C  0.56548703  0.19210189  0.23092901    -0.27000
C1582       C  0.55078560  0.18261818  0.25018484     0.06600
C1583       C  0.52481232  0.18448415  0.24834889     0.26200
C1584       C  0.51394727  0.19716807  0.22864908    -0.11500
C1585       C  0.52868980  0.20836019  0.21038656    -0.25400
C1586       C  0.55456762  0.20493304  0.21118608     0.37100
C1587       C  0.56249178  0.17274947  0.27306603     0.06600
F1588       F  0.50997018  0.17479817  0.26611939    -0.19200
H1589       H  0.49396632  0.19950797  0.22839056     0.16500
F1590       F  0.56940741  0.21580598  0.19413838    -0.22900
H1591       H  0.58553478  0.19087229  0.23196005     0.18300
C1592       C  0.57958260  0.15320904  0.27216841     0.26300
C1593       C  0.59022211  0.14415414  0.29401347    -0.11400
C1594       C  0.58426110  0.15449316  0.31727964    -0.25500
C1595       C  0.56737738  0.17437753  0.31800091     0.37200
C1596       C  0.55663069  0.18324848  0.29615838    -0.27100
F1597       F  0.58544639  0.14240356  0.25023962    -0.19200
H1598       H  0.60300676  0.12879339  0.29266648     0.16500
F1599       F  0.56092015  0.18515117  0.33977194    -0.22900
H1600       H  0.54371173  0.19852951  0.29725863     0.18300
C1601       C  0.55582324  0.14332132  0.51177516    -0.27000
C1602       C  0.54300547  0.16579212  0.51073627     0.06600
C1603       C  0.54030123  0.17752086  0.48768643     0.26200
C1604       C  0.55037477  0.16695171  0.46624583    -0.11500
C1605       C  0.56324244  0.14442586  0.46720691    -0.25400
C1606       C  0.56573243  0.13261388  0.49032306     0.37100
C1607       C  0.53349764  0.17756362  0.53375991     0.06600
F1608       F  0.52877139  0.19971805  0.48603857    -0.19200
H1609       H  0.54834815  0.17662421  0.44886214     0.16500
F1610       F  0.57851385  0.11115407  0.49245790    -0.22900
H1611       H  0.55828063  0.13407841  0.52934544     0.18300
C1612       C  0.50870914  0.18546760  0.53539616     0.26300
C1613       C  0.50094123  0.19988836  0.55544122    -0.11400
C1614       C  0.51773546  0.20692586  0.57415192    -0.25500
C1615       C  0.54192030  0.19719604  0.57366982     0.37200
C1616       C  0.54967954  0.18254491  0.55362834    -0.27100
F1617       F  0.49228615  0.18017354  0.51705484    -0.19200
H1618       H  0.48218838  0.20713281  0.55546413     0.16500
F1619       F  0.55869061  0.20378573  0.59125012    -0.22900
H1620       H  0.56881941  0.17646211  0.55282971     0.18300
C1621       C  0.64926636  0.99635817  0.46051672    -0.27000
C1622       C  0.67260793  0.99707650  0.47200385     0.06600
C1623       C  0.68533684  0.01978171  0.47337923     0.26200
C1624       C  0.67486276  0.04120537  0.46344179    -0.11500
C1625       C  0.65150013  0.04056804  0.45183763    -0.25400
C1626       C  0.63871348  0.01778379  0.45062747     0.37100
C1627       C  0.68426052  0.97404635  0.48142100     0.06600
F1628       F  0.70843450  0.02108162  0.48338571    -0.19200
H1629       H  0.68531878  0.05826294  0.46446689     0.16500
F1630       F  0.61633199  0.01589227  0.43920693    -0.22900
H1631       H  0.63922286  0.97907905  0.45907428     0.18300
C1632       C  0.69434310  0.97321051  0.50537753     0.26300
C1633       C  0.70922311  0.95336059  0.51249150    -0.11400
C1634       C  0.71444702  0.93397568  0.49589195    -0.25500
C1635       C  0.70224036  0.93348554  0.47291172     0.37200
C1636       C  0.68721909  0.95340725  0.46576948    -0.27100
F1637       F  0.69085611  0.99219729  0.52147578    -0.19200
H1638       H  0.71833424  0.95404997  0.53035501     0.16500
F1639       F  0.70678454  0.91504267  0.45646477    -0.22900
H1640       H  0.67935302  0.95349990  0.44733232     0.18300
C1641       C  0.18293624  0.48582910  0.53529400    -0.27000
C1642       C  0.16847999  0.50730668  0.53426293     0.06600
C1643       C  0.14384010  0.50665214  0.54251814     0.26200
C1644       C  0.13395060  0.48480227  0.55208043    -0.11500
C1645       C  0.14859787  0.46332715  0.55391019    -0.25400
C1646       C  0.17326094  0.46406329  0.54513436     0.37100
C1647       C  0.17993705  0.53037783  0.52544642     0.06600
F1648       F  0.12946727  0.52717838  0.54149897    -0.19200
H1649       H  0.11497077  0.48494166  0.55870105     0.16500
F1650       F  0.18832050  0.44404138  0.54656898    -0.22900
H1651       H  0.20206424  0.48614867  0.52906473     0.18300
C1652       C  0.18612232  0.54932620  0.54221705     0.26300
C1653       C  0.20221814  0.56828953  0.53499951    -0.11400
C1654       C  0.21220078  0.56845571  0.51103888    -0.25500
C1655       C  0.20392717  0.55088287  0.49364850     0.37200
C1656       C  0.18807431  0.53186851  0.50090420    -0.27100
F1657       F  0.17866481  0.54809720  0.56615334    -0.19200
H1658       H  0.20873834  0.58139890  0.54873448     0.16500
F1659       F  0.21323550  0.55072124  0.47031930    -0.22900
H1660       H  0.18340990  0.51741055  0.48779023     0.18300
C1661       C  0.08847481  0.34508457  0.73498143    -0.27000
C1662       C  0.07959542  0.32075815  0.73424062     0.06600
C1663       C  0.07697133  0.30897096  0.71108502     0.26200
C1664       C  0.08330655  0.32123818  0.68927398    -0.11500
C1665       C  0.09224735  0.34558447  0.68992180    -0.25400
C1666       C  0.09481028  0.35740837  0.71317078     0.37100
C1667       C  0.07159569  0.30819987  0.75732312     0.06600
F1668       F  0.06730548  0.28588525  0.70940730    -0.19200
H1669       H  0.08096023  0.31166655  0.67179059     0.16500
F1670       F  0.10297364  0.38105755  0.71495401    -0.22900
H1671       H  0.09044338  0.35461569  0.75253976     0.18300
C1672       C  0.07883460  0.28376562  0.76218409     0.26300
C1673       C  0.06729619  0.27043883  0.78101524    -0.11400
C1674       C  0.04877319  0.28136021  0.79568650    -0.25500
C1675       C  0.04346501  0.30652969  0.79266192     0.37200
C1676       C  0.05478443  0.31983183  0.77354351    -0.27100
F1677       F  0.09626250  0.27242511  0.74800852    -0.19200
H1678       H  0.07173868  0.25108007  0.78321797     0.16500
F1679       F  0.02570939  0.31758622  0.80664409    -0.22900
H1680       H  0.04913630  0.33872691  0.77037753     0.18300
C1681       C  0.04615401  0.32122788  0.45389836    -0.27000
C1682       C  0.03034894  0.32683966  0.47384140     0.06600
C1683       C  0.00536868  0.31950926  0.47267390     0.26200
C1684       C  0.99691704  0.30501821  0.45295818    -0.11500
C1685       C  0.01321723  0.29746805  0.43409214    -0.25400
C1686       C  0.03769258  0.30655984  0.43412648     0.37100
C1687       C  0.04037426  0.33825028  0.49676436     0.06600
F1688       F  0.98945405  0.32538116  0.49124387    -0.19200
H1689       H  0.97796675  0.29828352  0.45322592     0.16500
F1690       F  0.05397612  0.29941422  0.41633184    -0.22900
H1691       H  0.06545316  0.32686008  0.45443775     0.18300
C1692       C  0.03996581  0.32519002  0.51918176     0.26300
C1693       C  0.04991462  0.33567174  0.54075896    -0.11400
C1694       C  0.06030724  0.35949119  0.54053219    -0.25500
C1695       C  0.06042492  0.37261468  0.51796918     0.37200
C1696       C  0.05072727  0.36194892  0.49635668    -0.27100
F1697       F  0.03059644  0.30194304  0.52000711    -0.19200
H1698       H  0.04972450  0.32496871  0.55762199     0.16500
F1699       F  0.07053718  0.39550448  0.51648562    -0.22900
H1700       H  0.05127419  0.37222861  0.47922879     0.18300
C1701       C  0.21748713  0.44690900  0.68953588    -0.27000
C1702       C  0.24027073  0.44549894  0.67696457     0.06600
C1703       C  0.24123224  0.43349544  0.65397332     0.26200
C1704       C  0.21955650  0.42366979  0.64346800    -0.11500
C1705       C  0.19646121  0.42552706  0.65570782    -0.25400
C1706       C  0.19580190  0.43695908  0.67916489     0.37100
C1707       C  0.26241584  0.45801684  0.68745276     0.06600
F1708       F  0.26291522  0.43214900  0.64124965    -0.19200
H1709       H  0.22083738  0.41502398  0.62541619     0.16500
F1710       F  0.17426490  0.43874805  0.69206594    -0.22900
H1711       H  0.21648061  0.45603450  0.70738051     0.18300
C1712       C  0.26239813  0.48376427  0.69014348     0.26300
C1713       C  0.28139308  0.49555481  0.70320968    -0.11400
C1714       C  0.30064376  0.48191747  0.71418851    -0.25500
C1715       C  0.30170129  0.45629358  0.70995646     0.37200
C1716       C  0.28268545  0.44444387  0.69655293    -0.27100
F1717       F  0.24334369  0.49739285  0.68106935    -0.19200
H1718       H  0.28022140  0.51530650  0.70618870     0.16500
F1719       F  0.31984890  0.44252505  0.72050610    -0.22900
H1720       H  0.28301340  0.42455466  0.69452857     0.18300
C1721       C  0.19435848  0.29522137  0.55094775    -0.27000
C1722       C  0.18404232  0.27206280  0.55649747     0.06600
C1723       C  0.16368485  0.27083787  0.57258256     0.26200
C1724       C  0.15354581  0.29242853  0.58252403    -0.11500
C1725       C  0.16349488  0.31576604  0.57672585    -0.25400
C1726       C  0.18429326  0.31689902  0.56095600     0.37100
C1727       C  0.19436694  0.24937357  0.54506794     0.06600
F1728       F  0.15302108  0.24881511  0.57797942    -0.19200
H1729       H  0.13755681  0.29079812  0.59454259     0.16500
F1730       F  0.19471098  0.33884906  0.55483200    -0.22900
H1731       H  0.21024943  0.29649690  0.53874232     0.18300
C1732       C  0.19672451  0.24757236  0.51927835     0.26300
C1733       C  0.20849601  0.22722204  0.50862474    -0.11400
C1734       C  0.21854433  0.20842292  0.52342479    -0.25500
C1735       C  0.21482847  0.20942673  0.54914892     0.37200
C1736       C  0.20273849  0.22977224  0.55984820    -0.27100
F1737       F  0.18816251  0.26580431  0.50440904    -0.19200
H1738       H  0.21094525  0.22673508  0.48873936     0.16500
F1739       F  0.22449132  0.19179151  0.56404789    -0.22900
H1740       H  0.20099932  0.23081512  0.57978053     0.18300
C1741       C  0.02507236  0.46132930  0.68474525    -0.27000
C1742       C  0.00310097  0.46442219  0.67116831     0.06600
C1743       C  0.00327120  0.45955815  0.64566036     0.26200
C1744       C  0.02503403  0.45115513  0.63410259    -0.11500
C1745       C  0.04699511  0.44724157  0.64780593    -0.25400
C1746       C  0.04674990  0.45272995  0.67335018     0.37100
C1747       C  0.98023504  0.47243460  0.68418139     0.06600
F1748       F  0.98241581  0.46292940  0.63197971    -0.19200
H1749       H  0.02448222  0.44716018  0.61446425     0.16500
F1750       F  0.06719629  0.44920697  0.68758816    -0.22900
H1751       H  0.02524960  0.46504909  0.70445713     0.18300
C1752       C  0.96042216  0.45594743  0.68812890     0.26300
C1753       C  0.94105368  0.46227890  0.70437105    -0.11400
C1754       C  0.94125744  0.48511280  0.71677146    -0.25500
C1755       C  0.96018875  0.50219134  0.71134348     0.37200
C1756       C  0.97953106  0.49581175  0.69533666    -0.27100
F1757       F  0.96084975  0.43304810  0.67785956    -0.19200
H1758       H  0.92692276  0.44872037  0.70861933     0.16500
F1759       F  0.96083536  0.52447811  0.72291525    -0.22900
H1760       H  0.99461448  0.50872579  0.69250209     0.18300
C1761       C  0.18679475  0.04935427  0.45662622    -0.27000
C1762       C  0.17781040  0.03040779  0.47193298     0.06600
C1763       C  0.18106443  0.03265331  0.49768191     0.26200
C1764       C  0.19535885  0.05190292  0.50750130    -0.11500
C1765       C  0.20636549  0.06946162  0.49192599    -0.25400
C1766       C  0.20085401  0.06882328  0.46653451     0.37100
C1767       C  0.16813096  0.00706003  0.46086453     0.06600
F1768       F  0.17159926  0.01545337  0.51323061    -0.19200
H1769       H  0.19931241  0.05214407  0.52715213     0.16500
F1770       F  0.21125426  0.08547002  0.45098974    -0.22900
H1771       H  0.18462173  0.04810854  0.43675054     0.18300
C1772       C  0.15082181  0.00716004  0.44138006     0.26300
C1773       C  0.14354766  0.98497802  0.43007656    -0.11400
C1774       C  0.15327030  0.96218597  0.43795492    -0.25500
C1775       C  0.17040531  0.96211939  0.45761839     0.37200
C1776       C  0.17774363  0.98429474  0.46880674    -0.27100
F1777       F  0.14079175  0.02865448  0.43335640    -0.19200
H1778       H  0.13022535  0.98568204  0.41508598     0.16500
F1779       F  0.18081142  0.94076618  0.46553147    -0.22900
H1780       H  0.19161348  0.98369793  0.48330163     0.18300
C1781       C  0.06130750  0.80549412  0.54887197    -0.27000
C1782       C  0.04499404  0.81826448  0.53308234     0.06600
C1783       C  0.01933165  0.81743611  0.53813485     0.26200
C1784       C  0.01026400  0.80284514  0.55743339    -0.11500
C1785       C  0.02656639  0.78923632  0.57234404    -0.25400
C1786       C  0.05221812  0.79125660  0.56840024     0.37100
C1787       C  0.05478724  0.83091148  0.51063554     0.06600
F1788       F  0.00293400  0.83009611  0.52397060    -0.19200
H1789       H  0.99037746  0.80103832  0.55989000     0.16500
F1790       F  0.06831517  0.77764242  0.58201019    -0.22900
H1791       H  0.08107939  0.80532425  0.54525720     0.18300
C1792       C  0.07656122  0.84520424  0.51181605     0.26300
C1793       C  0.08664017  0.85541464  0.49038340    -0.11400
C1794       C  0.07534688  0.85179179  0.46711955    -0.25500
C1795       C  0.05313294  0.83811226  0.46598866     0.37200
C1796       C  0.04312165  0.82769026  0.48749657    -0.27100
F1797       F  0.08819046  0.84940022  0.53372308    -0.19200
H1798       H  0.10369269  0.86589374  0.49207484     0.16500
F1799       F  0.04120770  0.83448292  0.44415127    -0.22900
H1800       H  0.02655449  0.81646842  0.48588562     0.18300
C1801       C  0.07440344  0.78186733  0.23575654    -0.27000
C1802       C  0.06680178  0.80462463  0.24577847     0.06600
C1803       C  0.04932982  0.81878343  0.23259796     0.26200
C1804       C  0.03790721  0.80917783  0.21133345    -0.11500
C1805       C  0.04386895  0.78546889  0.20271303    -0.25400
C1806       C  0.06299859  0.77231164  0.21446547     0.37100
C1807       C  0.07599920  0.81267099  0.27057686     0.06600
F1808       F  0.04247604  0.84145084  0.24089099    -0.19200
H1809       H  0.02292861  0.81940516  0.20279288     0.16500
F1810       F  0.06890060  0.74917827  0.20672826    -0.22900
H1811       H  0.08797074  0.77069956  0.24536156     0.18300
C1812       C  0.05934608  0.82012601  0.28926502     0.26300
C1813       C  0.06818528  0.82808132  0.31235723    -0.11400
C1814       C  0.09380651  0.82864140  0.31751469    -0.25500
C1815       C  0.11036282  0.82005162  0.29913445     0.37200
C1816       C  0.10148685  0.81216972  0.27602648    -0.27100
F1817       F  0.03444591  0.81941231  0.28534899    -0.19200
H1818       H  0.05489185  0.83432978  0.32604040     0.16500
F1819       F  0.13522270  0.81954709  0.30324470    -0.22900
H1820       H  0.11465472  0.80610074  0.26213806     0.18300
C1821       C  0.20864274  0.74407908  0.48694103    -0.27000
C1822       C  0.20564857  0.74565416  0.46116883     0.06600
C1823       C  0.21354195  0.72540896  0.44650135     0.26200
C1824       C  0.22586668  0.70527541  0.45729162    -0.11500
C1825       C  0.22996583  0.70463595  0.48289265    -0.25400
C1826       C  0.21996973  0.72363608  0.49770004     0.37100
C1827       C  0.19551833  0.76883204  0.44992129     0.06600
F1828       F  0.20977982  0.72519479  0.42168896    -0.19200
H1829       H  0.23324965  0.69080736  0.44552526     0.16500
F1830       F  0.22250382  0.72309877  0.52269000    -0.22900
H1831       H  0.20329764  0.75919707  0.49893713     0.18300
C1832       C  0.17639614  0.78248857  0.46153639     0.26300
C1833       C  0.16796917  0.80464363  0.45132560    -0.11400
C1834       C  0.17764813  0.81337242  0.42892923    -0.25500
C1835       C  0.19652781  0.79985231  0.41716551     0.37200
C1836       C  0.20568124  0.77816180  0.42783265    -0.47900
F1837       F  0.16509560  0.77412225  0.48229787    -0.19200
H1838       H  0.15304432  0.81451586  0.46046822     0.16500
F1839       F  0.20642995  0.80783838  0.39556245    -0.22900
H1840       H  0.22097745  0.76882058  0.41881389     0.18300
C1841       C  0.22793095  0.94197537  0.71298115    -0.27000
C1842       C  0.24087131  0.95369535  0.69373751     0.06600
C1843       C  0.23209270  0.97661059  0.68511752     0.26200
C1844       C  0.21271078  0.98867429  0.69745979    -0.11500
C1845       C  0.20131207  0.97774516  0.71796994    -0.25400
C1846       C  0.20827104  0.95384041  0.72495013     0.37100
C1847       C  0.26452379  0.94277456  0.68454218     0.06600
F1848       F  0.24284123  0.98779829  0.66543462    -0.19200
H1849       H  0.20766162  0.00721799  0.69202274     0.16500
F1850       F  0.19766929  0.94301106  0.74491704    -0.22900
H1851       H  0.23412807  0.92432788  0.71996387     0.18300
C1852       C  0.28611481  0.95728099  0.68209190     0.26300
C1853       C  0.30865429  0.94644708  0.67525336    -0.11400
C1854       C  0.31043186  0.92088224  0.67107609    -0.25500
C1855       C  0.28887408  0.90632504  0.67381752     0.37200
C1856       C  0.26625885  0.91723170  0.68034269    -0.27100
F1857       F  0.28580905  0.98180697  0.68727904    -0.19200
H1858       H  0.32480187  0.95820540  0.67330179     0.16500
F1859       F  0.28946087  0.88153640  0.67015700    -0.22900
H1860       H  0.25000766  0.90559924  0.68222161     0.18300
C1861       C  0.35133203  0.00700257  0.57091709    -0.27000
C1862       C  0.33224956  0.00516102  0.55337939     0.06600
C1863       C  0.32432333  0.98153422  0.54573329     0.26200
C1864       C  0.33488894  0.96024462  0.55600335    -0.11500
C1865       C  0.35351422  0.96203991  0.57415895    -0.25400
C1866       C  0.36191524  0.98582151  0.58118379     0.37100
C1867       C  0.31990203  0.02781304  0.54394898     0.06600
F1868       F  0.30549557  0.97903464  0.52920398    -0.19200
H1869       H  0.32787195  0.94235874  0.55032895     0.16500
F1870       F  0.38021053  0.98879513  0.59823446    -0.22900
H1871       H  0.35792500  0.02496921  0.57686821     0.18300
C1872       C  0.30931365  0.04512783  0.56038259     0.26300
C1873       C  0.29491816  0.06465782  0.55134169    -0.11400
C1874       C  0.29098230  0.06729977  0.52585917    -0.25500
C1875       C  0.30285789  0.05098061  0.50939580     0.37200
C1876       C  0.31721034  0.03145606  0.51839184    -0.27100
F1877       F  0.31125208  0.04207471  0.58520729    -0.19200
H1878       H  0.28543883  0.07670903  0.56429223     0.16500
F1879       F  0.29927332  0.05307862  0.48464406    -0.22900
H1880       H  0.32549237  0.01860202  0.50540213     0.18300
C1881       C  0.44446170  0.85265388  0.50518215    -0.27000
C1882       C  0.46050040  0.83243705  0.50753227     0.06600
C1883       C  0.46539436  0.82316798  0.53137652     0.26200
C1884       C  0.45373116  0.83348755  0.55220484    -0.11500
C1885       C  0.43689172  0.85314008  0.54970389    -0.25400
C1886       C  0.43277605  0.86291357  0.52589526     0.37100
C1887       C  0.47111064  0.82049477  0.48501081     0.06600
F1888       F  0.48051589  0.80338635  0.53445429    -0.19200
H1889       H  0.45724360  0.82552079  0.57020006     0.16500
F1890       F  0.41734243  0.88239280  0.52247702    -0.22900
H1891       H  0.44077412  0.86042438  0.48713171     0.18300
C1892       C  0.45563862  0.81314015  0.46522782     0.26300
C1893       C  0.46529483  0.79948005  0.44534661    -0.11400
C1894       C  0.49044999  0.79284068  0.44487483    -0.25500
C1895       C  0.50621441  0.80160870  0.46380263     0.37200
C1896       C  0.49660787  0.81529412  0.48361826    -0.27100
F1897       F  0.43081984  0.81741057  0.46606877    -0.19200
H1898       H  0.45273359  0.79238987  0.43135118     0.16500
F1899       F  0.53063368  0.79536960  0.46397857    -0.22900
H1900       H  0.50897129  0.82110794  0.49835139     0.18300
C1901       C  0.45296305  0.82654732  0.72573512    -0.27000
C1902       C  0.43705967  0.81571343  0.74313645     0.06600
C1903       C  0.41140424  0.81516102  0.73826851     0.26200
C1904       C  0.40199602  0.82516865  0.71627650    -0.11500
C1905       C  0.41798947  0.83564251  0.69855196    -0.25400
C1906       C  0.44366343  0.83629856  0.70367057     0.37100
C1907       C  0.44781632  0.80411800  0.76559410     0.06600
F1908       F  0.39543425  0.80525943  0.75491641    -0.19200
H1909       H  0.38214555  0.82461039  0.71307770     0.16500
F1910       F  0.45985804  0.84675629  0.68760633    -0.22900
H1911       H  0.47279502  0.82709583  0.72909013     0.18300
C1912       C  0.44482624  0.77871029  0.76983954     0.26300
C1913       C  0.45833344  0.76708304  0.78859454    -0.11400
C1914       C  0.47475117  0.78058544  0.80367958    -0.25500
C1915       C  0.47672680  0.80619634  0.80038013     0.37200
C1916       C  0.46346115  0.81781345  0.78137542    -0.27100
F1917       F  0.43032959  0.76479775  0.75466774    -0.19200
H1918       H  0.45691600  0.74725223  0.79060455     0.16500
F1919       F  0.49283639  0.81961668  0.81431726    -0.22900
H1920       H  0.46610023  0.83738137  0.77834898     0.18300
C1921       C  0.32285582  0.78331752  0.55874699    -0.27000
C1922       C  0.32474437  0.76260283  0.57413895     0.06600
C1923       C  0.33239673  0.76581411  0.59872309     0.26200
C1924       C  0.33851805  0.78933863  0.60758001    -0.11500
C1925       C  0.33711698  0.81019769  0.59212697    -0.25400
C1926       C  0.32886515  0.80692057  0.56759002     0.37100
C1927       C  0.31796694  0.73790954  0.56442258     0.06600
F1928       F  0.33466160  0.74609712  0.61394139    -0.19200
H1929       H  0.34500138  0.79106580  0.62647102     0.16500
F1930       F  0.32668180  0.82639551  0.55206527    -0.22900
H1931       H  0.31657581  0.78117651  0.53981782     0.18300
C1932       C  0.29739852  0.72520200  0.57402326     0.26300
C1933       C  0.28821487  0.70430252  0.56179135    -0.11400
C1934       C  0.29931685  0.69587727  0.53981860    -0.25500
C1935       C  0.32117382  0.70726774  0.53149949     0.37200
C1936       C  0.33038426  0.72820086  0.54371838    -0.27100
F1937       F  0.28465929  0.73445953  0.59363716    -0.19200
H1938       H  0.27087957  0.69626791  0.56797748     0.16500
F1939       F  0.33200270  0.69974798  0.51009856    -0.22900
H1940       H  0.34634186  0.73772351  0.53617116     0.18300
C1941       C  0.08802529  0.17781406  0.23276419    -0.27000
C1942       C  0.06539363  0.19049884  0.23180147     0.06600
C1943       C  0.05411824  0.19450182  0.20863887     0.26200
C1944       C  0.06479014  0.18492597  0.18706157    -0.11500
C1945       C  0.08712631  0.17162656  0.18807057    -0.25400
C1946       C  0.09884948  0.16844922  0.21121455     0.37100
C1947       C  0.05363660  0.19940870  0.25497461     0.06600
F1948       F  0.03295245  0.20796376  0.20681183    -0.19200
H1949       H  0.05554357  0.18792734  0.16953410     0.16500
F1950       F  0.12030209  0.15547370  0.21328597    -0.22900
H1951       H  0.09705316  0.17460687  0.25037125     0.18300
C1952       C  0.02849686  0.19440367  0.25986104     0.26300
C1953       C  0.01683125  0.20516449  0.28026755    -0.11400
C1954       C  0.03001797  0.22091819  0.29624053    -0.25500
C1955       C  0.05558561  0.22437540  0.29255522     0.37200
C1956       C  0.06732240  0.21360121  0.27206425    -0.27100
F1957       F  0.01499689  0.17977564  0.24444583    -0.19200
H1958       H  0.99703197  0.20255791  0.28270766     0.16500
F1959       F  0.06864103  0.23989863  0.30745212    -0.22900
H1960       H  0.08676974  0.21749377  0.26877164     0.18300
C1961       C  0.06731019  0.19683825  0.95377739    -0.27000
C1962       C  0.05129246  0.18414766  0.96983324     0.06600
C1963       C  0.02579263  0.18320212  0.96436888     0.26200
C1964       C  0.01630489  0.19616927  0.94419944    -0.11500
C1965       C  0.03207326  0.21022047  0.92916125    -0.25400
C1966       C  0.05777206  0.20988375  0.93359796     0.37100
C1967       C  0.06092557  0.17330217  0.99304311     0.06600
F1968       F  0.00995448  0.17054694  0.97915073    -0.19200
H1969       H  0.99639748  0.19665218  0.94129449     0.16500
F1970       F  0.07328067  0.22401124  0.91983417    -0.22900
H1971       H  0.08701057  0.19786447  0.95773531     0.18300
C1972       C  0.08041494  0.15618654  0.99256862     0.26300
C1973       C  0.08925442  0.14603845  0.01457678    -0.11400
C1974       C  0.07909434  0.15293008  0.03763863    -0.25500
C1975       C  0.05977886  0.17045376  0.03807532     0.37200
C1976       C  0.05075863  0.18038707  0.01594713    -0.27100
F1977       F  0.09065560  0.14896916  0.97077191    -0.19200
H1978       H  0.10424055  0.13277058  0.01347366     0.16500
F1979       F  0.04993259  0.17843980  0.05978170    -0.22900
H1980       H  0.03602139  0.19396309  0.01669443     0.18300
C1981       C  0.21924904  0.94869403  0.31593591    -0.27000
C1982       C  0.24181516  0.93581244  0.31778689     0.06600
C1983       C  0.24184795  0.91226768  0.32849170     0.26200
C1984       C  0.21975505  0.90207500  0.33753861    -0.11500
C1985       C  0.19717271  0.91517498  0.33625689    -0.25400
C1986       C  0.19715047  0.93856925  0.32500681     0.37100
C1987       C  0.26511958  0.94751890  0.30896979     0.06600
F1988       F  0.26340022  0.89958598  0.33120314    -0.19200
H1989       H  0.22053459  0.88417211  0.34630838     0.16500
F1990       F  0.17588012  0.95181410  0.32288667    -0.22900
H1991       H  0.21878103  0.96677901  0.30750274     0.18300
C1992       C  0.28024764  0.93603801  0.29105491     0.26300
C1993       C  0.30019821  0.94892287  0.28054444    -0.11400
C1994       C  0.30531714  0.97330663  0.28779942    -0.25500
C1995       C  0.29112966  0.98417955  0.30670526     0.37200
C1996       C  0.27126149  0.97137390  0.31718776    -0.27100
F1997       F  0.27450101  0.91324407  0.28223658    -0.19200
H1998       H  0.31043124  0.94058164  0.26542635     0.16500
F1999       F  0.29530045  0.00795307  0.31357896    -0.22900
H2000       H  0.25994773  0.98050334  0.33102990     0.18300
C2001       C  0.23460467  0.09271218  0.18752292    -0.27000
C2002       C  0.23686661  0.06741713  0.19224965     0.06600
C2003       C  0.21617448  0.05198343  0.18815988     0.26200
C2004       C  0.19415771  0.06159215  0.17834973    -0.11500
C2005       C  0.19216863  0.08680696  0.17272457    -0.25400
C2006       C  0.21259955  0.10238952  0.17793721     0.37100
C2007       C  0.26068508  0.05744026  0.20181943     0.06600
F2008       F  0.21708785  0.02766358  0.19396691    -0.19200
H2009       H  0.17877138  0.04916838  0.17484823     0.16500
F2010       F  0.21166690  0.12697987  0.17337626    -0.22900
H2011       H  0.25015868  0.10500054  0.19079383     0.18300
C2012       C  0.27156251  0.03626114  0.19123675     0.26300
C2013       C  0.29251391  0.02558438  0.20209447    -0.11400
C2014       C  0.30315265  0.03603665  0.22337384    -0.25500
C2015       C  0.29346667  0.05816586  0.23289267     0.37200
C2016       C  0.27243540  0.06881178  0.22213111    -0.27100
F2017       F  0.26154493  0.02549991  0.17081765    -0.19200
H2018       H  0.29952635  0.00828041  0.19481832     0.16500
F2019       F  0.30316844  0.06834652  0.25376025    -0.22900
H2020       H  0.26453813  0.08522113  0.23049897     0.18300
C2021       C  0.18637013  0.96952694  0.01565562    -0.27000
C2022       C  0.18394421  0.97327261  0.04122957     0.06600
C2023       C  0.19413339  0.95582958  0.05756305     0.26200
C2024       C  0.20825890  0.93613612  0.04836192    -0.11500
C2025       C  0.21227157  0.93359029  0.02285451    -0.25400
C2026       C  0.20043373  0.94986489  0.00650435     0.37100
C2027       C  0.17276119  0.99642585  0.05069966     0.06600
F2028       F  0.19232708  0.95906340  0.08240920    -0.19200
H2029       H  0.21775882  0.92410904  0.06120951     0.16500
F2030       F  0.20423460  0.94789266  0.98176004    -0.22900
H2031       H  0.17837907  0.98257529  0.00279888     0.18300
C2032       C  0.18214196  0.01948880  0.04330167     0.26300
C2033       C  0.17238137  0.04130917  0.05322258    -0.11400
C2034       C  0.15321413  0.04056815  0.07082326    -0.25500
C2035       C  0.14350191  0.01739411  0.07777178     0.37200
C2036       C  0.15327804  0.99562319  0.06781837    -0.27100
F2037       F  0.20150356  0.02088163  0.02729649    -0.19200
H2038       H  0.18038714  0.05876471  0.04767831     0.16500
F2039       F  0.12460237  0.01564229  0.09427204    -0.22900
H2040       H  0.14569013  0.97804778  0.07357329     0.18300
C2041       C  0.18634005  0.23386553  0.09124850    -0.27000
C2042       C  0.18829514  0.23711826  0.06558771     0.06600
C2043       C  0.18396061  0.21672013  0.04987867     0.26200
C2044       C  0.17682397  0.19398641  0.05968843    -0.11500
C2045       C  0.17422107  0.19090681  0.08533460    -0.25400
C2046       C  0.17953875  0.21106036  0.10109166     0.37100
C2047       C  0.19650082  0.26125810  0.05551217     0.06600
F2048       F  0.18721135  0.21848098  0.02506124    -0.19200
H2049       H  0.17295871  0.17886425  0.04708284     0.16500
F2050       F  0.17803509  0.20890404  0.12604662    -0.22900
H2051       H  0.18990610  0.24912702  0.10377266     0.18300
C2052       C  0.18529112  0.27151582  0.03436590     0.26300
C2053       C  0.19619197  0.29173814  0.02263000    -0.11400
C2054       C  0.21790790  0.30241415  0.03218823    -0.25500
C2055       C  0.22754642  0.29392332  0.05468579     0.37200
C2056       C  0.21696466  0.27344501  0.06619659    -0.27100
F2057       F  0.16444894  0.26140317  0.02444728    -0.19200
H2058       H  0.18871582  0.29797360  0.00513909     0.16500
F2059       F  0.24869968  0.30385005  0.06412916    -0.22900
H2060       H  0.22586879  0.26611012  0.08254456     0.18300
C2061       C  0.96515321  0.95036405  0.31687754    -0.27000
C2062       C  0.98313189  0.96596152  0.32765168     0.06600
C2063       C  0.98082029  0.99163523  0.32454059     0.26200
C2064       C  0.96212136  0.00122215  0.30945345    -0.11500
C2065       C  0.94509631  0.98550820  0.29761374    -0.25400
C2066       C  0.94620009  0.96004384  0.30206273     0.37100
C2067       C  0.00542285  0.95527124  0.33988141     0.06600
F2068       F  0.99711103  0.00741879  0.33545743    -0.19200
H2069       H  0.96153576  0.02091297  0.30612487     0.16500
F2070       F  0.93020755  0.94440781  0.29051030    -0.22900
H2071       H  0.96661294  0.93052861  0.31869980     0.18300
C2072       C  0.00333369  0.93567841  0.35668429     0.26300
C2073       C  0.02463764  0.92435719  0.36612033    -0.11400
C2074       C  0.04855480  0.93229970  0.35914141    -0.25500
C2075       C  0.05061002  0.95252667  0.34303113     0.37200
C2076       C  0.02927332  0.96369752  0.33343978    -0.27100
F2077       F  0.98070457  0.92740885  0.36398715    -0.19200
H2078       H  0.02231314  0.90906322  0.37872052     0.16500
F2079       F  0.07315148  0.96109798  0.33584179    -0.22900
H2080       H  0.03146598  0.97849134  0.32023477     0.18300
C2081       C  0.97255708  0.01641473  0.18284117    -0.27000
C2082       C  0.97955605  0.04137205  0.18385441     0.06600
C2083       C  0.96661146  0.05750519  0.19972752     0.26200
C2084       C  0.94798175  0.04849636  0.21527787    -0.11500
C2085       C  0.94191529  0.02334751  0.21519859    -0.25400
C2086       C  0.95385874  0.00742816  0.19840247     0.37100
C2087       C  0.00139747  0.05033907  0.16980393     0.06600
F2088       F  0.97329959  0.08160030  0.20157319    -0.19200
H2089       H  0.93941768  0.06085311  0.22857374     0.16500
F2090       F  0.94837728  0.98297888  0.19808029    -0.22900
H2091       H  0.98217828  0.00375600  0.17060146     0.18300
C2092       C  0.02509018  0.04014513  0.17370538     0.26300
C2093       C  0.04606913  0.05068511  0.16262098    -0.11400
C2094       C  0.04383660  0.07152372  0.14735245    -0.25500
C2095       C  0.01982031  0.08095733  0.14265435     0.37200
C2096       C  0.99896700  0.07049469  0.15387924    -0.27100
F2097       F  0.02811749  0.02083772  0.18931130    -0.19200
H2098       H  0.06415852  0.04294776  0.16663055     0.16500
F2099       F  0.01635666  0.10077210  0.12779542    -0.22900
H2100       H  0.98084434  0.07849249  0.15053423     0.18300
C2101       C  0.53146225  0.99403175  0.68573065    -0.27000
C2102       C  0.52915496  0.96856362  0.68153231     0.06600
C2103       C  0.54835021  0.95275746  0.68938228     0.26200
C2104       C  0.56861139  0.96221669  0.70265139    -0.11500
C2105       C  0.56992915  0.98745445  0.70830268    -0.25400
C2106       C  0.55160303  0.00342157  0.69907320     0.37100
C2107       C  0.50591362  0.95843733  0.67077608     0.06600
F2108       F  0.54650763  0.92798240  0.68603542    -0.19200
H2109       H  0.58226884  0.94961167  0.71012517     0.16500
F2110       F  0.55237560  0.02790620  0.70445509    -0.22900
H2111       H  0.51708570  0.00654821  0.67955257     0.18300
C2112       C  0.48267605  0.96441126  0.68114065     0.26300
C2113       C  0.46096807  0.95342292  0.67206730    -0.11400
C2114       C  0.46200486  0.93614945  0.65265124    -0.25500
C2115       C  0.48520291  0.93089703  0.64170301     0.37200
C2116       C  0.50687453  0.94192823  0.65076089    -0.27100
F2117       F  0.48106570  0.97992915  0.70086104    -0.19200
H2118       H  0.44343930  0.95774657  0.68089224     0.16500
F2119       F  0.48703596  0.91503575  0.62227759    -0.22900
H2120       H  0.52451671  0.93740081  0.64226273     0.18300
C2121       C  0.36233599  0.99532114  0.95178211    -0.27000
C2122       C  0.34106711  0.99768803  0.96657328     0.06600
C2123       C  0.33144070  0.02145122  0.97110644     0.26200
C2124       C  0.34231222  0.04219717  0.96013776    -0.11500
C2125       C  0.36291847  0.03972479  0.94435361    -0.25400
C2126       C  0.37321637  0.01602512  0.94080716     0.37100
C2127       C  0.32813733  0.97532751  0.97597819     0.06600
F2128       F  0.31067518  0.02450356  0.98500955    -0.19200
H2129       H  0.33391165  0.06010688  0.96319467     0.16500
F2130       F  0.39364447  0.01271606  0.92648024    -0.22900
H2131       H  0.37031825  0.97727776  0.94839138     0.18300
C2132       C  0.32048546  0.95645285  0.95962220     0.26300
C2133       C  0.30558899  0.93697598  0.96803941    -0.11400
C2134       C  0.29804387  0.93601876  0.99283795    -0.25500
C2135       C  0.30702353  0.95404083  0.00948315     0.37200
C2136       C  0.32188958  0.97346899  0.00109399    -0.27100
F2137       F  0.32575662  0.95788122  0.93513102    -0.19200
H2138       H  0.29843958  0.92366267  0.95482178     0.16500
F2139       F  0.30012135  0.95363099  0.03362583    -0.22900
H2140       H  0.32782907  0.98757340  0.01408193     0.18300
C2141       C  0.31526262  0.20988320  0.95439589    -0.27000
C2142       C  0.31238062  0.22999697  0.93831203     0.06600
C2143       C  0.31976945  0.22728035  0.91353429     0.26200
C2144       C  0.33076274  0.20528973  0.90539952    -0.11500
C2145       C  0.33468482  0.18545577  0.92172392    -0.25400
C2146       C  0.32614607  0.18780521  0.94625651     0.37100
C2147       C  0.30271569  0.25393854  0.94791778     0.06600
F2148       F  0.31756962  0.24631125  0.89746363    -0.19200
H2149       H  0.33696166  0.20416196  0.88637850     0.16500
F2150       F  0.32865634  0.16901901  0.96256716    -0.22900
H2151       H  0.30929893  0.21140238  0.97347373     0.18300
C2152       C  0.28252272  0.26598421  0.93663658     0.26300
C2153       C  0.27250197  0.28741806  0.94730560    -0.11400
C2154       C  0.28241732  0.29722334  0.96929395    -0.25500
C2155       C  0.30310854  0.28570831  0.98004323     0.37200
C2156       C  0.31318882  0.26436756  0.96938116    -0.27100
F2157       F  0.27126743  0.25603048  0.91644762    -0.19200
H2158       H  0.25587080  0.29538376  0.93938750     0.16500
F2159       F  0.31228909  0.29398164  0.00195247    -0.22900
H2160       H  0.32873239  0.25545691  0.97838700     0.18300
C2161       C  0.45475668  0.14164980  0.01156873    -0.27000
C2162       C  0.46990813  0.16266815  0.01002140     0.06600
C2163       C  0.47365204  0.17362550  0.98672316     0.26200
C2164       C  0.46187368  0.16413092  0.96564786    -0.11500
C2165       C  0.44584336  0.14379720  0.96738922    -0.25400
C2166       C  0.44278828  0.13228702  0.99052117     0.37100
C2167       C  0.48061978  0.17411445  0.03270997     0.06600
F2168       F  0.48758301  0.19438547  0.98452539    -0.19200
H2169       H  0.46442040  0.17340126  0.94812947     0.16500
F2170       F  0.42818543  0.11199662  0.99282512    -0.22900
H2171       H  0.45192342  0.13266276  0.02919030     0.18300
C2172       C  0.46538931  0.18046420  0.05296714     0.26300
C2173       C  0.47466592  0.19540722  0.07211096    -0.11400
C2174       C  0.49916863  0.20420971  0.07130906    -0.25500
C2175       C  0.51494120  0.19601671  0.05222951     0.37200
C2176       C  0.50573349  0.18107342  0.03318682    -0.27100
F2177       F  0.44100525  0.17409551  0.05319981    -0.19200
H2178       H  0.46215803  0.20171103  0.08649512     0.16500
F2179       F  0.53886222  0.20387402  0.05117071    -0.22900
H2180       H  0.51795125  0.17593385  0.01811158     0.18300
C2181       C  0.28365487  0.08384282  0.81484163    -0.27000
C2182       C  0.27226320  0.06371406  0.82670325     0.06600
C2183       C  0.28464208  0.05279933  0.84688243     0.26200
C2184       C  0.30817683  0.06104134  0.85409730    -0.11500
C2185       C  0.31956984  0.08093452  0.84209902    -0.25400
C2186       C  0.30685276  0.09267930  0.82272093     0.37100
C2187       C  0.24890419  0.05266635  0.81657317     0.06600
F2188       F  0.27383730  0.03437766  0.85996408    -0.19200
H2189       H  0.31720656  0.05233432  0.86970344     0.16500
F2190       F  0.31712526  0.11229201  0.81101801    -0.22900
H2191       H  0.27491755  0.09240496  0.79901889     0.18300
C2192       C  0.22912529  0.06725051  0.80759977     0.26300
C2193       C  0.20911092  0.05621087  0.79497367    -0.11400
C2194       C  0.20840855  0.03054425  0.79135861    -0.25500
C2195       C  0.22709794  0.01595977  0.80206229     0.37200
C2196       C  0.24717593  0.02690451  0.81412475    -0.27100
F2197       F  0.22941884  0.09214511  0.81044687    -0.19200
H2198       H  0.19492760  0.06779175  0.78683812     0.16500
F2199       F  0.22673813  0.99103096  0.79941791    -0.22900
H2200       H  0.26209553  0.01509037  0.82037634     0.18300
C2201       C  0.49074077  0.03703984  0.82965771    -0.27000
C2202       C  0.51420411  0.04692036  0.83566456     0.06600
C2203       C  0.51543212  0.06661583  0.85260547     0.26200
C2204       C  0.49372944  0.07628806  0.86301747    -0.11500
C2205       C  0.47015498  0.06668360  0.85684428    -0.25400
C2206       C  0.46894446  0.04672703  0.84009302     0.37100
C2207       C  0.53700436  0.03751611  0.82312425     0.06600
F2208       F  0.53765058  0.07649813  0.85923568    -0.19200
H2209       H  0.49547349  0.09158164  0.87586611     0.16500
F2210       F  0.44675739  0.03703117  0.83312881    -0.22900
H2211       H  0.48919611  0.02220616  0.81625161     0.18300
C2212       C  0.54125371  0.01201456  0.82045414     0.26300
C2213       C  0.56046129  0.00342434  0.80527276    -0.11400
C2214       C  0.57595515  0.02003204  0.79270880    -0.25500
C2215       C  0.57308130  0.04543329  0.79694879     0.37200
C2216       C  0.55371432  0.05407718  0.81196267    -0.27100
F2217       F  0.52620744  0.99539283  0.83169567    -0.19200
H2218       H  0.56223032  0.98376622  0.80197537     0.16500
F2219       F  0.58739888  0.06190537  0.78460533    -0.22900
H2220       H  0.55081140  0.07379285  0.81351219     0.18300
C2221       C  0.42194984  0.19667480  0.78612962    -0.27000
C2222       C  0.44622671  0.19170344  0.77814045     0.06600
C2223       C  0.46164982  0.17682414  0.79287246     0.26200
C2224       C  0.45261491  0.16667668  0.81489081    -0.11500
C2225       C  0.42800884  0.17097637  0.82244497    -0.25400
C2226       C  0.41281606  0.18631110  0.80792915     0.37100
C2227       C  0.45570886  0.20334770  0.75524419     0.06600
F2228       F  0.48554195  0.17243007  0.78617691    -0.19200
H2229       H  0.46465749  0.15487469  0.82567981     0.16500
F2230       F  0.38913268  0.19139087  0.81485712    -0.22900
H2231       H  0.40992966  0.20842764  0.77526161     0.18300
C2232       C  0.46615810  0.18926606  0.73590891     0.26300
C2233       C  0.47713596  0.20097731  0.71554705    -0.11400
C2234       C  0.47786242  0.22681857  0.71430649    -0.25500
C2235       C  0.46589460  0.24074633  0.73289858     0.37200
C2236       C  0.45494733  0.22908369  0.75308335    -0.27100
F2237       F  0.46625610  0.16425992  0.73702630    -0.19200
H2238       H  0.48640747  0.18994882  0.70158332     0.16500
F2239       F  0.46625273  0.26580014  0.73233212    -0.22900
H2240       H  0.44686208  0.24025634  0.76766661     0.18300
C2241       C  0.65982034  0.26856329  0.92366200    -0.27000
C2242       C  0.68139542  0.26846931  0.93807877     0.06600
C2243       C  0.69137724  0.29107412  0.94633170     0.26200
C2244       C  0.68004850  0.31340053  0.93994626    -0.11500
C2245       C  0.65852726  0.31364229  0.92523366    -0.25400
C2246       C  0.64847419  0.29081374  0.91720288     0.37100
C2247       C  0.69351332  0.24487375  0.94467306     0.06600
F2248       F  0.71182664  0.29150523  0.96102992    -0.19200
H2249       H  0.68810584  0.33049937  0.94662292     0.16500
F2250       F  0.62776901  0.28980379  0.90289357    -0.22900
H2251       H  0.65189729  0.25133338  0.91714371     0.18300
C2252       C  0.68094116  0.22692334  0.95864137     0.26300
C2253       C  0.69405002  0.20698945  0.96869257    -0.11400
C2254       C  0.71968669  0.20468940  0.96467968    -0.25500
C2255       C  0.73154698  0.22116879  0.94847615     0.37200
C2256       C  0.71856779  0.24116369  0.93871386    -0.27100
F2257       F  0.65659401  0.22986925  0.96441369    -0.19200
H2258       H  0.68467898  0.19464884  0.98132701     0.16500
F2259       F  0.75626278  0.21914401  0.94393656    -0.22900
H2260       H  0.72840254  0.25451123  0.92752832     0.18300
C2261       C  0.55771545  0.36011636  0.01345962    -0.27000
C2262       C  0.54492844  0.33757278  0.01239051     0.06600
C2263       C  0.53997922  0.32692328  0.98909213     0.26200
C2264       C  0.54810330  0.33834486  0.96740379    -0.11500
C2265       C  0.56113564  0.36078139  0.96833738    -0.25400
C2266       C  0.56563582  0.37174414  0.99171406     0.37100
C2267       C  0.53729006  0.32456382  0.03533324     0.06600
F2268       F  0.52813103  0.30486738  0.98734121    -0.19200
H2269       H  0.54451445  0.32935908  0.94981979     0.16500
F2270       F  0.57860130  0.39315696  0.99372777    -0.22900
H2271       H  0.56171678  0.36864170  0.03118708     0.18300
C2272       C  0.55487695  0.31738613  0.05323480     0.26300
C2273       C  0.54816028  0.30092548  0.07209315    -0.11400
C2274       C  0.52385862  0.29160220  0.07338327    -0.25500
C2275       C  0.50589574  0.30047848  0.05676649     0.37200
C2276       C  0.51257353  0.31680464  0.03799661    -0.27100
F2277       F  0.57894773  0.32456344  0.05126056    -0.19200
H2278       H  0.56232026  0.29405718  0.08451246     0.16500
F2279       F  0.48221891  0.29189922  0.05762645    -0.22900
H2280       H  0.49866327  0.32239500  0.02467435     0.18300
C2281       C  0.73858653  0.41540001  0.84284185    -0.27000
C2282       C  0.73913186  0.43679572  0.82848413     0.06600
C2283       C  0.71717086  0.45036810  0.82509074     0.26200
C2284       C  0.69492694  0.44256840  0.83595050    -0.11500
C2285       C  0.69425720  0.42118428  0.85051058    -0.25400
C2286       C  0.71638917  0.40758340  0.85377822     0.37100
C2287       C  0.76219746  0.44436695  0.81585042     0.06600
F2288       F  0.71735908  0.47129633  0.81140280    -0.19200
H2289       H  0.67830512  0.45349615  0.83331436     0.16500
F2290       F  0.71650284  0.38640871  0.86707912    -0.22900
H2291       H  0.75531195  0.40457771  0.84529605     0.18300
C2292       C  0.78104381  0.45728234  0.82847544     0.26300
C2293       C  0.80080934  0.46778325  0.81526042    -0.11400
C2294       C  0.80191215  0.46534447  0.78942290    -0.25500
C2295       C  0.78405582  0.45072036  0.77720850     0.37200
C2296       C  0.76431943  0.44046667  0.79033345    -0.27100
F2297       F  0.77940775  0.46113067  0.85323819    -0.19200
H2298       H  0.81421935  0.47921021  0.82492075     0.16500
F2299       F  0.78482785  0.44780879  0.75226332    -0.22900
H2300       H  0.75003610  0.43037516  0.78041611     0.18300
C2301       C  0.47400891  0.50099994  0.82263362    -0.27000
C2302       C  0.47654449  0.47555527  0.82663030     0.06600
C2303       C  0.45787226  0.45951341  0.81786714     0.26200
C2304       C  0.43803291  0.46868324  0.80384792    -0.11500
C2305       C  0.43653565  0.49390854  0.79835423    -0.25400
C2306       C  0.45420413  0.51013737  0.80865825     0.37100
C2307       C  0.49936583  0.46578375  0.83857094     0.06600
F2308       F  0.45991169  0.43477686  0.82106651    -0.19200
H2309       H  0.42500510  0.45583214  0.79555785     0.16500
F2310       F  0.45329580  0.53463168  0.80358710    -0.22900
H2311       H  0.48796172  0.51370690  0.82952125     0.18300
C2312       C  0.52304758  0.47128273  0.82899357     0.26300
C2313       C  0.54444479  0.46138774  0.83989491    -0.11400
C2314       C  0.54271398  0.44611843  0.86075766    -0.25500
C2315       C  0.51895066  0.44071379  0.87033101     0.37200
C2316       C  0.49758649  0.45039617  0.85925717    -0.27100
F2317       F  0.52544537  0.48561461  0.80861384    -0.19200
H2318       H  0.56240439  0.46565693  0.83197551     0.16500
F2319       F  0.51621600  0.42533141  0.88987281    -0.22900
H2320       H  0.47955258  0.44584078  0.86684973     0.18300
C2321       C  0.54934263  0.32104410  0.73381899    -0.27000
C2322       C  0.56650896  0.30937992  0.74952483     0.06600
C2323       C  0.57515945  0.28570153  0.74316143     0.26200
C2324       C  0.56542120  0.27335952  0.72253429    -0.11500
C2325       C  0.54693376  0.28436248  0.70793903    -0.25400
C2326       C  0.53962524  0.30867329  0.71319666     0.37100
C2327       C  0.57406656  0.32148249  0.77310247     0.06600
F2328       F  0.59219519  0.27407202  0.75747638    -0.19200
H2329       H  0.57079144  0.25438351  0.71911865     0.16500
F2330       F  0.52112665  0.31940458  0.70001285    -0.22900
H2331       H  0.54219926  0.33916659  0.73842279     0.18300
C2332       C  0.58179003  0.34621096  0.77335443     0.26300
C2333       C  0.58783022  0.35786891  0.79561211    -0.11400
C2334       C  0.58631180  0.34527290  0.81828211    -0.25500
C2335       C  0.57860372  0.32043600  0.81810487     0.37200
C2336       C  0.57255805  0.30871077  0.79568346    -0.27100
F2337       F  0.58386824  0.35908052  0.75198617    -0.19200
H2338       H  0.59367824  0.37697931  0.79501084     0.16500
F2339       F  0.57719433  0.30738543  0.83941895    -0.22900
H2340       H  0.56631239  0.28971661  0.79600035     0.18300
C2341       C  0.68420432  0.55173373  0.96155796    -0.27000
C2342       C  0.67885480  0.53246874  0.97802675     0.06600
C2343       C  0.68740137  0.53406798  0.00251300     0.26200
C2344       C  0.70283589  0.55351204  0.00974817    -0.11500
C2345       C  0.71012325  0.57158511  0.99266587    -0.25400
C2346       C  0.69980777  0.57120054  0.96878932     0.37100
C2347       C  0.66737839  0.50934810  0.96884844     0.06600
F2348       F  0.68197278  0.51604052  0.01899707    -0.19200
H2349       H  0.71057597  0.55353279  0.02825282     0.16500
F2350       F  0.70679970  0.58817114  0.95178411    -0.22900
H2351       H  0.67780950  0.55074071  0.94257961     0.18300
C2352       C  0.64378423  0.50920640  0.95786601     0.26300
C2353       C  0.63383228  0.48717187  0.94853709    -0.11400
C2354       C  0.64739224  0.46493172  0.94959663    -0.25500
C2355       C  0.67110767  0.46524768  0.96062935     0.37200
C2356       C  0.68082300  0.48721226  0.97026400    -0.27100
F2357       F  0.63036386  0.53032997  0.95625515    -0.19200
H2358       H  0.61563728  0.48767675  0.94000457     0.16500
F2359       F  0.68511811  0.44448655  0.96191040    -0.22900
H2360       H  0.69922059  0.48707692  0.97840028     0.18300
C2361       C  0.94457544  0.35170423  0.98797352    -0.27000
C2362       C  0.96411112  0.33477834  0.99058814     0.06600
C2363       C  0.97310032  0.32981307  0.01456011     0.26200
C2364       C  0.96203421  0.34077901  0.03532407    -0.11500
C2365       C  0.94167796  0.35682090  0.03279398    -0.25400
C2366       C  0.93340442  0.36256201  0.00870020     0.37100
C2367       C  0.97415759  0.32151688  0.96849640     0.06600
F2368       F  0.99176317  0.31338301  0.01811793    -0.19200
H2369       H  0.96894829  0.33600845  0.05349266     0.16500
F2370       F  0.91421304  0.37834254  0.00499371    -0.22900
H2371       H  0.93768131  0.35633726  0.96975951     0.18300
C2372       C  0.95808993  0.31037587  0.95105365     0.26300
C2373       C  0.96764501  0.29577324  0.93181866    -0.11400
C2374       C  0.99326659  0.29176553  0.92979056    -0.25500
C2375       C  0.00938112  0.30370831  0.94649369     0.37200
C2376       C  0.99991128  0.31863418  0.96543889    -0.27100
F2377       F  0.93307660  0.31199209  0.95366388    -0.19200
H2378       H  0.95492971  0.28613325  0.91959539     0.16500
F2379       F  0.03424479  0.29970079  0.94532641    -0.22900
H2380       H  0.01273290  0.32729279  0.97825831     0.18300
C2381       C  0.95872273  0.32149082  0.20952420    -0.27000
C2382       C  0.94260955  0.32086159  0.22998744     0.06600
C2383       C  0.91787658  0.32836640  0.22688772     0.26200
C2384       C  0.90947457  0.33619943  0.20380633    -0.11500
C2385       C  0.92554841  0.33711816  0.18325851    -0.25400
C2386       C  0.95037947  0.32956059  0.18637961     0.37100
C2387       C  0.95171927  0.31199997  0.25429389     0.06600
F2388       F  0.90200297  0.32896869  0.24637346    -0.19200
H2389       H  0.89035780  0.34220469  0.20227415     0.16500
F2390       F  0.96668504  0.33014108  0.16726357    -0.22900
H2391       H  0.97784422  0.31559494  0.21146256     0.18300
C2392       C  0.93916848  0.29311663  0.26702579     0.26300
C2393       C  0.94975243  0.28260383  0.28810829    -0.11400
C2394       C  0.97296483  0.29062900  0.29673144    -0.25500
C2395       C  0.98478415  0.31045456  0.28498172     0.37200
C2396       C  0.97417638  0.32109956  0.26397689    -0.27100
F2397       F  0.91788137  0.28323796  0.25784067    -0.19200
H2398       H  0.94088787  0.26672694  0.29642186     0.16500
F2399       F  0.00763285  0.31797399  0.29252328    -0.22900
H2400       H  0.98407858  0.33569852  0.25456581     0.18300
C2401       C  0.99131126  0.46563388  0.16915300    -0.27000
C2402       C  0.01464981  0.45566132  0.16309749     0.06600
C2403       C  0.01600635  0.43706857  0.14499357     0.26200
C2404       C  0.99434772  0.42789205  0.13405476    -0.11500
C2405       C  0.97077950  0.43690403  0.14098976    -0.25400
C2406       C  0.96955871  0.45642366  0.15824192     0.37100
C2407       C  0.03703484  0.46314202  0.17734601     0.06600
F2408       F  0.03826783  0.42743503  0.13820814    -0.19200
H2409       H  0.99607300  0.41311209  0.12061646     0.16500
F2410       F  0.94738073  0.46583203  0.16554150    -0.22900
H2411       H  0.98980491  0.47983223  0.18323645     0.18300
C2412       C  0.04283360  0.48818597  0.18114147     0.26300
C2413       C  0.06172743  0.49494858  0.19761964    -0.11400
C2414       C  0.07520959  0.47688897  0.21039943    -0.25500
C2415       C  0.07032098  0.45187173  0.20571253     0.37200
C2416       C  0.05143467  0.44508109  0.18923837    -0.27100
F2417       F  0.02967123  0.50608940  0.16956459    -0.19200
H2418       H  0.06501296  0.51432974  0.20140820     0.16500
F2419       F  0.08242421  0.43410386  0.21857403    -0.22900
H2420       H  0.04706852  0.42569326  0.18690646     0.18300
C2421       C  0.78365322  0.23967326  0.06199471    -0.27000
C2422       C  0.80596512  0.24853508  0.05186124     0.06600
C2423       C  0.81700237  0.23538239  0.03221526     0.26200
C2424       C  0.80487745  0.21503133  0.02168451    -0.11500
C2425       C  0.78178571  0.20729419  0.03075900    -0.25400
C2426       C  0.77155256  0.21931018  0.05144069     0.37100
C2427       C  0.81682725  0.27211458  0.06101874     0.06600
F2428       F  0.83912692  0.24267557  0.02270681    -0.19200
H2429       H  0.81277979  0.20621218  0.00548124     0.16500
F2430       F  0.74896519  0.21247579  0.06020961    -0.22900
H2431       H  0.77486145  0.24939640  0.07718787     0.18300
C2432       C  0.82287691  0.29127225  0.04457204     0.26300
C2433       C  0.83309811  0.31340946  0.05339730    -0.11400
C2434       C  0.83737069  0.31704620  0.07880857    -0.25500
C2435       C  0.83058611  0.29802812  0.09531018     0.37200
C2436       C  0.82042483  0.27592457  0.08643047    -0.27100
F2437       F  0.81843400  0.28880259  0.01997219    -0.19200
H2438       H  0.83792078  0.32761892  0.04023151     0.16500
F2439       F  0.83388875  0.30055241  0.12008661    -0.22900
H2440       H  0.81564641  0.26156303  0.09945852     0.18300
C2441       C  0.85601267  0.51155063  0.06406162    -0.27000
C2442       C  0.83880454  0.51030986  0.04459510     0.06600
C2443       C  0.83237439  0.48687717  0.03501353     0.26200
C2444       C  0.84276979  0.46536202  0.04493295    -0.11500
C2445       C  0.85950922  0.46658140  0.06485950    -0.25400
C2446       C  0.86605677  0.49009435  0.07427604     0.37100
C2447       C  0.82678454  0.53326468  0.03517189     0.06600
F2448       F  0.81517013  0.48460689  0.01678310    -0.19200
H2449       H  0.83711252  0.44766337  0.03742890     0.16500
F2450       F  0.88202055  0.49255422  0.09357590    -0.22900
H2451       H  0.86163523  0.52925444  0.07157651     0.18300
C2452       C  0.81704162  0.55113292  0.05160698     0.26300
C2453       C  0.80280365  0.57079017  0.04266355    -0.11400
C2454       C  0.79779774  0.57288302  0.01733361    -0.25500
C2455       C  0.80884104  0.55610940  0.00077599     0.37200
C2456       C  0.82343798  0.53670037  0.00961942    -0.27100
F2457       F  0.81934345  0.54848626  0.07644556    -0.19200
H2458       H  0.79389280  0.58315993  0.05571912     0.16500
F2459       F  0.80393325  0.55745504  0.97619040    -0.22900
H2460       H  0.83121500  0.52367932  0.99649553     0.18300
C2461       C  0.74108793  0.46626113  0.18798468    -0.27000
C2462       C  0.75444844  0.44754187  0.19996244     0.06600
C2463       C  0.74562907  0.43854537  0.22268699     0.26200
C2464       C  0.72456591  0.44903270  0.23372656    -0.11500
C2465       C  0.71185528  0.46852336  0.22227255    -0.25400
C2466       C  0.71996926  0.47666308  0.19900234     0.37100
C2467       C  0.77812347  0.43832685  0.18925288     0.06600
F2468       F  0.75850479  0.42100675  0.23512757    -0.19200
H2469       H  0.71927859  0.44324161  0.25213347     0.16500
F2470       F  0.70876183  0.49616433  0.18800555    -0.22900
H2471       H  0.74756020  0.47342513  0.17046901     0.18300
C2472       C  0.78139302  0.41314267  0.18412075     0.26300
C2473       C  0.80352789  0.40468688  0.17360629    -0.11400
C2474       C  0.82301379  0.42109386  0.16791041    -0.25500
C2475       C  0.81992202  0.44632376  0.17360322     0.37200
C2476       C  0.79761635  0.45478693  0.18403903    -0.27100
F2477       F  0.76280518  0.39679461  0.18843794    -0.19200
H2478       H  0.80513556  0.38518673  0.16944487     0.16500
F2479       F  0.83811487  0.46292331  0.16864005    -0.22900
H2480       H  0.79551847  0.47427452  0.18806598     0.18300
C2481       C  0.95939025  0.69129786  0.22397265    -0.27000
C2482       C  0.95101624  0.70356128  0.24541844     0.06600
C2483       C  0.95130184  0.72947420  0.24601076     0.26200
C2484       C  0.96152756  0.74269052  0.22642417    -0.11500
C2485       C  0.97198881  0.73041612  0.20595960    -0.25400
C2486       C  0.96983573  0.70461418  0.20433175     0.37100
C2487       C  0.94385432  0.68947672  0.26783078     0.06600
F2488       F  0.94261065  0.74200308  0.26601308    -0.19200
H2489       H  0.96279193  0.76259590  0.22796100     0.16500
F2490       F  0.97974454  0.69217887  0.18486177    -0.22900
H2491       H  0.95926698  0.67133235  0.22308729     0.18300
C2492       C  0.92603903  0.67057479  0.26673201     0.26300
C2493       C  0.91951616  0.65765750  0.28813767    -0.11400
C2494       C  0.93055314  0.66333642  0.31111012    -0.25500
C2495       C  0.94860732  0.68214067  0.31209932     0.37200
C2496       C  0.95515425  0.69496851  0.29066513    -0.27100
F2497       F  0.91443372  0.66505875  0.24511086    -0.19200
H2498       H  0.90548039  0.64339488  0.28676268     0.16500
F2499       F  0.96030173  0.68789897  0.33361973    -0.22900
H2500       H  0.96929004  0.70915782  0.29185701     0.18300
C2501       C  0.95911188  0.64259387  0.50469212    -0.27000
C2502       C  0.97131756  0.66535930  0.50462283     0.06600
C2503       C  0.97528304  0.67760412  0.48213451     0.26200
C2504       C  0.96653788  0.66737149  0.46001660    -0.11500
C2505       C  0.95389239  0.64467981  0.45996957    -0.25400
C2506       C  0.95057773  0.63217482  0.48260779     0.37100
C2507       C  0.97920320  0.67678624  0.52808762     0.06600
F2508       F  0.98675958  0.69991236  0.48172626    -0.19200
H2509       H  0.96924460  0.67746274  0.44298763     0.16500
F2510       F  0.93819677  0.61037790  0.48368926    -0.22900
H2511       H  0.95594662  0.63302651  0.52195489     0.18300
C2512       C  0.96151549  0.68593872  0.54488844     0.26300
C2513       C  0.96915760  0.70003079  0.56527306    -0.11400
C2514       C  0.99445061  0.70497642  0.56903095    -0.25500
C2515       C  0.01215101  0.69428700  0.55317936     0.37200
C2516       C  0.00452727  0.68035569  0.53278473    -0.27100
F2517       F  0.93687373  0.68293074  0.54045493    -0.19200
H2518       H  0.95530626  0.70864224  0.57698883     0.16500
F2519       F  0.03671481  0.69895383  0.55642464    -0.22900
H2520       H  0.01831470  0.67326378  0.52001953     0.18300
C2521       C  0.03699915  0.49835388  0.32035618    -0.27000
C2522       C  0.03530918  0.52363894  0.32572371     0.06600
C2523       C  0.05462848  0.53943399  0.31815897     0.26200
C2524       C  0.07419386  0.53029366  0.30368760    -0.11500
C2525       C  0.07474775  0.50534379  0.29667332    -0.25400
C2526       C  0.05655509  0.48923698  0.30600930     0.37100
C2527       C  0.01240347  0.53376590  0.33711676     0.06600
F2528       F  0.05344115  0.56402359  0.32290970    -0.19200
H2529       H  0.08777195  0.54304656  0.29630735     0.16500
F2530       F  0.05674576  0.46497409  0.29964344    -0.22900
H2531       H  0.02250627  0.48585055  0.32632217     0.18300
C2532       C  0.98913627  0.53021519  0.32570894     0.26300
C2533       C  0.96786402  0.54168603  0.33524604    -0.11400
C2534       C  0.96929509  0.55647249  0.35659713    -0.25500
C2535       C  0.99251551  0.55922839  0.36849311     0.37200
C2536       C  0.01380465  0.54814000  0.35867055    -0.27100
F2537       F  0.98716520  0.51647982  0.30473665    -0.19200
H2538       H  0.95028812  0.53917287  0.32579587     0.16500
F2539       F  0.99494876  0.57352595  0.38904315    -0.22900
H2540       H  0.03152543  0.55102111  0.36775211     0.18300
C2541       C  0.86732128  0.50125549  0.45506326    -0.27000
C2542       C  0.84186468  0.50025012  0.45999863     0.06600
C2543       C  0.82732753  0.52151902  0.45695070     0.26200
C2544       C  0.83801292  0.54329506  0.44810140    -0.11500
C2545       C  0.86345259  0.54429902  0.44230124    -0.25400
C2546       C  0.87815569  0.52306897  0.44648112     0.37100
C2547       C  0.83018834  0.47700957  0.46803502     0.06600
F2548       F  0.80261732  0.52096051  0.46188765    -0.19200
H2549       H  0.82619517  0.55918549  0.44521096     0.16500
F2550       F  0.90291618  0.52305591  0.44178093    -0.22900
H2551       H  0.87876302  0.48503027  0.45763519     0.18300
C2552       C  0.82277349  0.45912748  0.45059703     0.26300
C2553       C  0.80743064  0.43951271  0.45778791    -0.11400
C2554       C  0.79948604  0.43760925  0.48241831    -0.25500
C2555       C  0.80865230  0.45442541  0.50012304     0.37200
C2556       C  0.82380580  0.47402488  0.49292319    -0.27100
F2557       F  0.82874079  0.46176685  0.42636812    -0.19200
H2558       H  0.80015497  0.42703957  0.44383942     0.16500
F2559       F  0.80107013  0.45309417  0.52401957    -0.22900
H2560       H  0.82941159  0.48767865  0.50652741     0.18300
C2561       C  0.81892374  0.71599771  0.43768243    -0.27000
C2562       C  0.83244103  0.73822051  0.43776121     0.06600
C2563       C  0.85701528  0.73803474  0.42910667     0.26200
C2564       C  0.86768075  0.71608620  0.42039771    -0.11500
C2565       C  0.85422124  0.69372161  0.42032485    -0.25400
C2566       C  0.82961590  0.69397586  0.42915663     0.37100
C2567       C  0.82083345  0.76115437  0.44762566     0.06600
F2568       F  0.87059765  0.75914368  0.42868589    -0.19200
H2569       H  0.88665918  0.71664435  0.41381541     0.16500
F2570       F  0.81576754  0.67305221  0.42952760    -0.22900
H2571       H  0.80005905  0.71562753  0.44461053     0.18300
C2572       C  0.79721278  0.76856854  0.43939164     0.26300
C2573       C  0.78453880  0.78761328  0.45150336    -0.11400
C2574       C  0.79522272  0.79974533  0.47186740    -0.25500
C2575       C  0.81952274  0.79364006  0.47903827     0.37200
C2576       C  0.83225799  0.77450921  0.46692035    -0.27100
F2577       F  0.78597824  0.75670744  0.42024980    -0.19200
H2578       H  0.76570870  0.79192897  0.44593260     0.16500
F2579       F  0.83011368  0.80483717  0.49893167    -0.22900
H2580       H  0.85040881  0.76911158  0.47362250     0.18300
C2581       C  0.80118095  0.56044333  0.30675961    -0.27000
C2582       C  0.77805659  0.57026809  0.31375238     0.06600
C2583       C  0.77718380  0.58852086  0.33215794     0.26200
C2584       C  0.79901991  0.59648648  0.34371336    -0.11500
C2585       C  0.82225523  0.58633327  0.33727883    -0.25400
C2586       C  0.82312145  0.56827364  0.31844685     0.37100
C2587       C  0.75484993  0.56069305  0.30248695     0.06600
F2588       F  0.75516570  0.59869221  0.33890586    -0.19200
H2589       H  0.79764707  0.61055086  0.35794031     0.16500
F2590       F  0.84492991  0.55751858  0.31192689    -0.22900
H2591       H  0.80213415  0.54620137  0.29266747     0.18300
C2592       C  0.75015275  0.56377171  0.27717047     0.26300
C2593       C  0.72953272  0.55242456  0.26621527    -0.11400
C2594       C  0.71343911  0.53751472  0.28020365    -0.25500
C2595       C  0.71745597  0.53543838  0.30577311     0.37200
C2596       C  0.73791861  0.54715797  0.31684210    -0.27100
F2597       F  0.76602421  0.57696941  0.26289744    -0.19200
H2598       H  0.72703987  0.55384557  0.24638705     0.16500
F2599       F  0.70295392  0.52035068  0.31957135    -0.22900
H2600       H  0.74136101  0.54452926  0.33639036     0.18300
C2601       C  0.52514183  0.54429511  0.68844741    -0.27000
C2602       C  0.50382889  0.54314638  0.67350328     0.06600
C2603       C  0.50534292  0.55077125  0.64884274     0.26200
C2604       C  0.52777548  0.55979052  0.63940102    -0.11500
C2605       C  0.54912588  0.56169103  0.65445247    -0.25400
C2606       C  0.54755520  0.55359749  0.67916273     0.37100
C2607       C  0.48003880  0.53450681  0.68412283     0.06600
F2608       F  0.48510244  0.54949766  0.63391737    -0.19200
H2609       H  0.52821078  0.56583811  0.62035119     0.16500
F2610       F  0.56745470  0.55498616  0.69453085    -0.22900
H2611       H  0.52423570  0.53845521  0.70755960     0.18300
C2612       C  0.47735414  0.50989199  0.69152738     0.26300
C2613       C  0.45658175  0.50268720  0.70516190    -0.11400
C2614       C  0.43836931  0.51997906  0.71209476    -0.25500
C2615       C  0.44012182  0.54421752  0.70314190     0.37200
C2616       C  0.46081712  0.55136399  0.68909525    -0.27100
F2617       F  0.49550295  0.49316480  0.68676492    -0.19200
H2618       H  0.45570003  0.48399131  0.71212316     0.16500
F2619       F  0.42317275  0.56147277  0.70996824    -0.22900
H2620       H  0.46266057  0.57044444  0.68351108     0.18300
C2621       C  0.66977642  0.73659338  0.57875197    -0.27000
C2622       C  0.69394376  0.73527837  0.56929648     0.06600
C2623       C  0.70648407  0.71252272  0.56962980     0.26200
C2624       C  0.69479898  0.69139166  0.57900784    -0.11500
C2625       C  0.67048992  0.69258985  0.58850245    -0.25400
C2626       C  0.65816329  0.71563117  0.58839152     0.37100
C2627       C  0.70560554  0.75748585  0.55830977     0.06600
F2628       F  0.72975127  0.71058987  0.56017238    -0.19200
H2629       H  0.70477301  0.67404783  0.57872738     0.16500
F2630       F  0.63462105  0.71796050  0.59704807    -0.22900
H2631       H  0.65982740  0.75396227  0.57859172     0.18300
C2632       C  0.69547131  0.76833319  0.53698662     0.26300
C2633       C  0.70770471  0.78797142  0.52543898    -0.11400
C2634       C  0.73001566  0.79727100  0.53513647    -0.25500
C2635       C  0.73953739  0.78720774  0.55709495     0.37200
C2636       C  0.72743045  0.76741853  0.56853946    -0.27100
F2637       F  0.67461945  0.75888480  0.52645593    -0.19200
H2638       H  0.70052380  0.79502254  0.50814143     0.16500
F2639       F  0.76127821  0.79565364  0.56664799    -0.22900
H2640       H  0.73541041  0.75940445  0.58504392     0.18300
C2641       C  0.64958849  0.50150909  0.55045506    -0.27000
C2642       C  0.67324961  0.50219498  0.53966324     0.06600
C2643       C  0.68638980  0.52465602  0.53963587     0.26200
C2644       C  0.67617243  0.54584506  0.55056764    -0.11500
C2645       C  0.65249745  0.54527453  0.56158674    -0.25400
C2646       C  0.63917651  0.52277430  0.56113887     0.37100
C2647       C  0.68441906  0.47958304  0.52857675     0.06600
F2648       F  0.70951693  0.52590519  0.52972798    -0.19200
H2649       H  0.68702260  0.56268305  0.55067303     0.16500
F2650       F  0.61634734  0.52101303  0.57159755    -0.22900
H2651       H  0.63913391  0.48442249  0.55058957     0.18300
C2652       C  0.68959358  0.45863665  0.54302493     0.26300
C2653       C  0.70361365  0.43903855  0.53318296    -0.11400
C2654       C  0.71251681  0.43999735  0.50878934    -0.25500
C2655       C  0.70534932  0.45998034  0.49377982     0.37200
C2656       C  0.69166221  0.47960479  0.50367345    -0.27100
F2657       F  0.68283873  0.45801150  0.56718511    -0.19200
H2658       H  0.70914396  0.42407613  0.54518541     0.16500
F2659       F  0.71316446  0.46133660  0.46995228    -0.22900
H2660       H  0.68752672  0.49534723  0.49211673     0.18300
C2661       C  0.74379627  0.56956470  0.66380903    -0.27000
C2662       C  0.74243109  0.55983572  0.68772557     0.06600
C2663       C  0.71921875  0.55897247  0.69968039     0.26200
C2664       C  0.69798385  0.56834730  0.68813185    -0.11500
C2665       C  0.69939739  0.57877139  0.66443067    -0.25400
C2666       C  0.72260340  0.57891344  0.65220277     0.37100
C2667       C  0.76521120  0.55091823  0.70032025     0.06600
F2668       F  0.71700402  0.54874974  0.72243944    -0.19200
H2669       H  0.68044503  0.56762107  0.69789611     0.16500
F2670       F  0.72498281  0.58803667  0.62898934    -0.22900
H2671       H  0.76144338  0.57032226  0.65423310     0.18300
C2672       C  0.78083540  0.53324903  0.68916223     0.26300
C2673       C  0.80062852  0.52305126  0.70249246    -0.11400
C2674       C  0.80510864  0.53033867  0.72701883    -0.25500
C2675       C  0.79052082  0.54914877  0.73755464     0.37200
C2676       C  0.77083669  0.55937946  0.72425915    -0.27100
F2677       F  0.77580204  0.52442844  0.66616160    -0.19200
H2678       H  0.81123434  0.50810040  0.69435816     0.16500
F2679       F  0.79420665  0.55630570  0.76137420    -0.22900
H2680       H  0.75933947  0.57328529  0.73302900     0.18300
C2681       C  0.51225298  0.68418747  0.48107816    -0.27000
C2682       C  0.53784771  0.68142711  0.48495613     0.06600
C2683       C  0.55450332  0.69018250  0.46696800     0.26200
C2684       C  0.54568362  0.70318244  0.44641638    -0.11500
C2685       C  0.52020117  0.70779352  0.44367147    -0.25400
C2686       C  0.50346215  0.69743008  0.46073274     0.37100
C2687       C  0.54699489  0.67123817  0.50866649     0.06600
F2688       F  0.57935252  0.68723691  0.46995638    -0.19200
H2689       H  0.55887849  0.71145544  0.43381642     0.16500
F2690       F  0.47876329  0.70213401  0.45893727    -0.22900
H2691       H  0.49915494  0.67754196  0.49470967     0.18300
C2692       C  0.56155200  0.68579655  0.52469672     0.26300
C2693       C  0.57021770  0.67611679  0.54704092    -0.11400
C2694       C  0.56486360  0.65164034  0.55365399    -0.25500
C2695       C  0.54970688  0.63731432  0.53787255     0.37200
C2696       C  0.54066271  0.64718263  0.51573439    -0.27100
F2697       F  0.56737220  0.70940499  0.51872829    -0.19200
H2698       H  0.58197465  0.68749122  0.55871675     0.16500
F2699       F  0.54379261  0.61370686  0.54372987    -0.22900
H2700       H  0.52915491  0.63584349  0.50378387     0.18300
C2701       C  0.55624583  0.68691579  0.78425875    -0.27000
C2702       C  0.57257640  0.69994112  0.76870698     0.06600
C2703       C  0.57738919  0.72495380  0.77398978     0.26200
C2704       C  0.56440483  0.73711591  0.79287058    -0.11500
C2705       C  0.54667895  0.72454259  0.80708855    -0.25400
C2706       C  0.54340753  0.69908967  0.80332689     0.37100
C2707       C  0.58234723  0.68816067  0.74566713     0.06600
F2708       F  0.59388635  0.73790084  0.76020453    -0.19200
H2709       H  0.56709327  0.75677514  0.79545450     0.16500
F2710       F  0.52621653  0.68652256  0.81661710    -0.22900
H2711       H  0.55214510  0.66767473  0.78060694     0.18300
C2712       C  0.59339371  0.66468982  0.74603952     0.26300
C2713       C  0.60072713  0.65319676  0.72394490    -0.11400
C2714       C  0.59714260  0.66467740  0.70083182    -0.25500
C2715       C  0.58651732  0.68843469  0.70056848     0.37200
C2716       C  0.57924526  0.69993623  0.72272142    -0.27100
F2717       F  0.59721661  0.65286422  0.76778355    -0.19200
H2718       H  0.60896862  0.63501657  0.72500500     0.16500
F2719       F  0.58277156  0.70051150  0.67896823    -0.22900
H2720       H  0.57048909  0.71789383  0.72186166     0.18300
loop_ 
_geom_bond_atom_site_label_1 
_geom_bond_atom_site_label_2 
_geom_bond_distance 
_geom_bond_site_symmetry_2 
_ccdc_geom_bond_type 
O1           C17   1.283       .  A
O1           Zn7   2.074       .  S
C2           O18   1.275       .  A
C2           O15   1.280       .  A
C2         C2625   1.493       .  S
O3           C16   1.276       .  A
O3          Cd10   2.058       .  S
O4           C22   1.280       .  A
O4          Cd13   2.096       .  S
O5           C19   1.281       .  A
O5           Cd9   2.094       .  S
O6           C17   1.276       .  A
O6           Cd9   2.067       .  S
Zn7          O18   2.019       .  S
Zn7          O20   2.049       .  S
Zn7          O12   1.934       .  S
O8           C19   1.275       .  A
O8          Cd13   2.059       .  S
Cd9          O11   2.101       .  S
Cd9          O12   1.985       .  S
Cd10         O14   2.063       .  S
Cd10         O23   2.081       .  S
Cd10         O12   1.973       .  S
O11          C21   1.280       .  A
O12         Cd13   1.989       .  S
Cd13         O15   2.100       .  S
O14          C21   1.275       .  A
C16          O20   1.281       .  A
C16        C2694   1.483       .  S
C17        C2714   1.497       .  S
C19        C2665   1.488       .  S
C21        C2605   1.493       .  S
C22          O23   1.277       .  A
C22        C2645   1.496       .  S
O24          C40   1.282       .  A
O24         Zn30   2.061       .  S
C25          O41   1.277       .  A
C25          O38   1.279       .  A
C25        C2494   1.488       .  S
O26          C39   1.272       .  A
O26         Cd33   2.044       .  S
O27          C45   1.278       .  A
O27         Cd36   2.085       .  S
O28          C42   1.282       .  A
O28         Cd32   2.106       .  S
O29          C40   1.277       .  A
O29         Cd32   2.060       .  S
Zn30         O41   2.028       .  S
Zn30         O43   2.068       .  S
Zn30         O35   1.930       .  S
O31          C42   1.275       .  A
O31         Cd36   2.064       .  S
Cd32         O34   2.104       .  S
Cd32         O35   1.983       .  S
Cd33         O37   2.046       .  S
Cd33         O46   2.041       .  S
Cd33         O35   1.956       .  S
O34          C44   1.281       .  A
O35         Cd36   1.982       .  S
Cd36         O38   2.085       .  S
O37          C44   1.272       .  A
C39          O43   1.282       .  A
C39        C2534   1.485       .  S
C40        C2585   1.490       .  S
C42        C2565   1.493       .  S
C44        C2545   1.489       .  S
C45          O46   1.272       .  A
C45        C2505   1.481       .  S
O47          C63   1.282       .  A
O47         Zn53   2.060       .  S
C48          O64   1.275       .  A
C48          O61   1.283       .  A
C48        C2445   1.493       .  S
O49          C62   1.273       .  A
O49         Cd56   2.042       .  S
O50          C68   1.282       .  A
O50         Cd59   2.111       .  S
O51          C65   1.281       .  A
O51         Cd55   2.093       .  S
O52          C63   1.275       .  A
O52         Cd55   2.052       .  S
Zn53         O64   2.009       .  S
Zn53         O66   2.063       .  S
Zn53         O58   1.929       .  S
O54          C65   1.278       .  A
O54         Cd59   2.076       .  S
Cd55         O57   2.102       .  S
Cd55         O58   1.981       .  S
Cd56         O60   2.041       .  S
Cd56         O69   2.046       .  S
Cd56         O58   1.953       .  S
O57          C67   1.280       .  A
O58         Cd59   1.984       .  S
Cd59         O61   2.108       .  S
O60          C67   1.273       .  A
C62          O66   1.280       .  A
C62        C2474   1.491       .  S
C63        C2405   1.489       .  S
C65        C2365   1.492       .  S
C67        C2385   1.488       .  S
C68          O69   1.273       .  A
C68        C2434   1.491       .  S
C70         C556   1.482       .  S
C70          C71   1.412       .  A
C70          C75   1.411   1_554  A
C71          C72   1.406       .  A
C71          H76   1.083       .  S
C72        C2454   1.477       .  S
C72          C73   1.395       .  A
C73          C74   1.397   1_554  A
C73          H77   1.085       .  S
C74        C2345   1.480       .  S
C74          C75   1.405       .  A
C75          H78   1.084       .  S
C79         C733   1.486       .  S
C79          C80   1.413       .  A
C79          C84   1.412       .  A
C80          C81   1.408       .  A
C80          H85   1.083       .  S
C81        C2525   1.479       .  S
C81          C82   1.398       .  A
C82          C83   1.394       .  A
C82          H86   1.085       .  S
C83        C2414   1.474       .  S
C83          C84   1.402       .  A
C84          H87   1.084       .  S
O88         C104   1.282       .  A
O88         Zn94   2.057       .  S
C89         O105   1.273       .  A
C89         O102   1.281       .  A
C89        C2245   1.489       .  S
O90         C103   1.275       .  A
O90         Cd97   2.061       .  S
O91         C109   1.281       .  A
O91        Cd100   2.095       .  S
O92         C106   1.282       .  A
O92         Cd96   2.101       .  S
O93         C104   1.276       .  A
O93         Cd96   2.051       .  S
Zn94        O105   1.996       .  S
Zn94        O107   2.057       .  S
Zn94         O99   1.917       .  S
O95         C106   1.275       .  A
O95        Cd100   2.064       .  S
Cd96         O98   2.098       .  S
Cd96         O99   1.970       .  S
Cd97        O101   2.068       .  S
Cd97        O110   2.058       .  S
Cd97         O99   1.951       .  S
O98         C108   1.280       .  A
O99        Cd100   1.975       .  S
Cd100       O102   2.099       .  S
O101        C108   1.277       .  A
C103        O107   1.282       .  A
C103       C2265   1.490       .  S
C104       C2334   1.487       .  S
C106       C2285   1.485       .  S
C108       C2314   1.488       .  S
C109        O110   1.276       .  A
C109       C2354   1.488       .  S
O111        C127   1.280       .  A
O111       Zn117   2.047       .  S
C112        O128   1.275       .  A
C112        O125   1.282       .  A
C112       C2205   1.493       .  S
O113        C126   1.274       .  A
O113       Cd120   2.054       .  S
O114        C132   1.280       .  A
O114       Cd123   2.093       .  S
O115        C129   1.280       .  A
O115       Cd119   2.095       .  S
O116        C127   1.276       .  A
O116       Cd119   2.066       .  S
Zn117       O128   2.007       .  S
Zn117       O130   2.045       .  S
Zn117       O122   1.930       .  S
O118        C129   1.277       .  A
O118       Cd123   2.073       .  S
Cd119       O121   2.103       .  S
Cd119       O122   1.985       .  S
Cd120       O124   2.059       .  S
Cd120       O133   2.060       .  S
Cd120       O122   1.975       .  S
O121        C131   1.280       .  A
O122       Cd123   1.986       .  S
Cd123       O125   2.109       .  S
O124        C131   1.275       .  A
C126        O130   1.279       .  A
C126       C2225   1.481       .  S
C127       C2165   1.482       .  S
C129       C2125   1.489       .  S
C131       C2145   1.492       .  S
C132        O133   1.274       .  A
C132       C2185   1.479       .  S
C134       C2174   1.482       .  S
C134        C135   1.406       .  A
C134        C139   1.398       .  A
C135        C136   1.414       .  A
C135        H140   1.083       .  S
C136        C756   1.493       .  S
C136        C137   1.416       .  A
C137        C138   1.406       .  A
C137        H141   1.083       .  S
C138       C2274   1.483       .  S
C138        C139   1.397       .  A
C139        H142   1.085       .  S
C143       C2325   1.474       .  S
C143        C144   1.405       .  A
C143        C148   1.391       .  A
C144        C145   1.414       .  A
C144        H149   1.083       .  S
C145        C447   1.489       .  S
C145        C146   1.417       .  A
C146        C147   1.410       .  A
C146        H150   1.083       .  S
C147       C2234   1.483       .  S
C147        C148   1.393       .  A
C148        H151   1.086       .  S
C152        C586   1.482       .  S
C152        C153   1.413       .  A
C152        C157   1.411   1_545  A
C153        C154   1.407       .  A
C153        H158   1.083       .  S
C154       C2214   1.479       .  S
C154        C155   1.395       .  A
C155        C156   1.395   1_545  A
C155        H159   1.085       .  S
C156       C2105   1.475       .  S
C156        C157   1.404       .  A
C157        H160   1.084       .  S
C161       C2065   1.477       .  S
C161        C162   1.398   1_565  A
C161        C166   1.405       .  A
C162        C163   1.397       .  A
C162        H167   1.085       .  S
C163       C2085   1.476       .  S
C163        C164   1.405       .  A
C164        C165   1.412       .  A
C164        H168   1.084       .  S
C165        C702   1.484       .  S
C165        C166   1.410   1_545  A
C166        H169   1.084       .  S
C170       C2154   1.478       .  S
C170        C171   1.411       .  A
C170        C175   1.393       .  A
C171        C172   1.417   1_556  A
C171        H176   1.083       .  S
C172        C738   1.488       .  S
C172        C173   1.411       .  A
C173        C174   1.401       .  A
C173        H177   1.084       .  S
C174       C2054   1.469       .  S
C174        C175   1.393   1_554  A
C175        H178   1.086       .  S
C179        C711   1.490       .  S
C179        C180   1.417   1_554  A
C179        C184   1.412       .  A
C180        C181   1.411       .  A
C180        H185   1.083       .  S
C181       C2134   1.485       .  S
C181        C182   1.396   1_556  A
C182        C183   1.394       .  A
C182        H186   1.085       .  S
C183       C2025   1.474       .  S
C183        C184   1.403       .  A
C184        H187   1.084       .  S
C188       C1994   1.475       .  S
C188        C189   1.406       .  A
C188        C193   1.394   1_565  A
C189        C190   1.413   1_565  A
C189        H194   1.083       .  S
C190        C747   1.483       .  S
C190        C191   1.412       .  A
C191        C192   1.404       .  A
C191        H195   1.084       .  S
C192       C2014   1.472       .  S
C192        C193   1.393       .  A
C193        H196   1.086       .  S
C197        C684   1.485       .  S
C197        C198   1.414       .  A
C197        C202   1.411       .  A
C198        C199   1.409       .  A
C198        H203   1.083   1_455  S
C199       C2374   1.480   1_455  S
C199        C200   1.395       .  A
C200        C201   1.394       .  A
C200        H204   1.086       .  S
C201       C1965   1.473       .  S
C201        C202   1.404       .  A
C202        H205   1.084       .  S
C206       C2394   1.470       .  S
C206        C207   1.403       .  A
C206        C211   1.392   1_655  A
C207        C208   1.412   1_655  A
C207        H212   1.083       .  S
C208        C675   1.484       .  S
C208        C209   1.414       .  A
C209        C210   1.405       .  A
C209        H213   1.083       .  S
C210       C1954   1.474       .  S
C210        C211   1.393       .  A
C211        H214   1.086       .  S
O215        C231   1.282       .  A
O215       Zn221   2.053       .  S
C216        O232   1.275       .  A
C216        O229   1.280       .  A
C216       C2034   1.485       .  S
O217        C230   1.272       .  A
O217       Cd224   2.037       .  S
O218        C236   1.279       .  A
O218       Cd227   2.087       .  S
O219        C233   1.281       .  A
O219       Cd223   2.102       .  S
O220        C231   1.277       .  A
O220       Cd223   2.064       .  S
Zn221       O232   2.007       .  S
Zn221       O234   2.059       .  S
Zn221       O226   1.914       .  S
O222        C233   1.275       .  A
O222       Cd227   2.053       .  S
Cd223       O225   2.096       .  S
Cd223       O226   1.973       .  S
Cd224       O228   2.039       .  S
Cd224       O237   2.044       .  S
Cd224       O226   1.945       .  S
O225        C235   1.280       .  A
O226       Cd227   1.971       .  S
Cd227       O229   2.088       .  S
O228        C235   1.272       .  A
C230        O234   1.281       .  A
C230       C2005   1.488       .  S
C231       C2094   1.491       .  S
C233       C1974   1.489       .  S
C235       C1945   1.482       .  S
C236        O237   1.273       .  A
C236       C2045   1.483       .  S
O238        C254   1.282       .  A
O238       Zn244   2.058       .  S
C239        O255   1.275       .  A
C239        O252   1.279       .  A
C239       C2114   1.483       .  S
O240        C253   1.276       .  A
O240       Cd247   2.069       .  S
O241        C259   1.279       .  A
O241       Cd250   2.082       .  S
O242        C256   1.284       .  A
O242       Cd246   2.118       .  S
O243        C254   1.277       .  A
O243       Cd246   2.065       .  S
Zn244       O255   2.010       .  S
Zn244       O257   2.056       .  S
Zn244       O249   1.914       .  S
O245        C256   1.274       .  A
O245       Cd250   2.053       .  S
Cd246       O248   2.104       .  S
Cd246       O249   1.978       .  S
Cd247       O251   2.053       .  S
Cd247       O260   2.061       .  S
Cd247       O249   1.959       .  S
O248        C258   1.282       .  A
O249       Cd250   1.969       .  S
Cd250       O252   2.083       .  S
O251        C258   1.275       .  A
C253        O257   1.281       .  A
C253       C1905   1.492       .  S
C254       C1885   1.490       .  S
C256       C1865   1.493       .  S
C258       C1925   1.489       .  S
C259        O260   1.275       .  A
C259       C1854   1.487       .  S
O261        C277   1.281       .  A
O261       Zn267   2.049       .  S
C262        O278   1.275       .  A
C262        O275   1.279       .  A
C262       C1774   1.489       .  S
O263        C276   1.276       .  A
O263       Cd270   2.064       .  S
O264        C282   1.278       .  A
O264       Cd273   2.084       .  S
O265        C279   1.282       .  A
O265       Cd269   2.104       .  S
O266        C277   1.276       .  A
O266       Cd269   2.059       .  S
Zn267       O278   2.019       .  S
Zn267       O280   2.052       .  S
Zn267       O272   1.927       .  S
O268        C279   1.275       .  A
O268       Cd273   2.054       .  S
Cd269       O271   2.099       .  S
Cd269       O272   1.982       .  S
Cd270       O274   2.073       .  S
Cd270       O283   2.075       .  S
Cd270       O272   1.972       .  S
O271        C281   1.281       .  A
O272       Cd273   1.975       .  S
Cd273       O275   2.089       .  S
O274        C281   1.277       .  A
C276        O280   1.280       .  A
C276       C1985   1.490       .  S
C277       C2074   1.489       .  S
C279       C1794   1.491       .  S
C281       C1814   1.494       .  S
C282        O283   1.277       .  A
C282       C1834   1.481       .  S
C284        C639   1.485       .  S
C284        C285   1.411       .  A
C284        C289   1.414       .  A
C285        C286   1.402       .  A
C285        H290   1.084   1_455  S
C286       C2514   1.471   1_455  S
C286        C287   1.394       .  A
C287        C288   1.393       .  A
C287        H291   1.086       .  S
C288       C1785   1.476       .  S
C288        C289   1.407       .  A
C289        H292   1.083       .  S
C293        C765   1.489       .  S
C293        C294   1.413       .  A
C293        C298   1.414       .  A
C294        C295   1.406       .  A
C294        H299   1.083       .  S
C295       C1874   1.479       .  S
C295        C296   1.396       .  A
C296        C297   1.398       .  A
C296        H300   1.085       .  S
C297       C1765   1.482       .  S
C297        C298   1.407       .  A
C298        H301   1.084       .  S
C302       C1934   1.473       .  S
C302        C303   1.392       .  A
C302        C307   1.403       .  A
C303        C304   1.395       .  A
C303        H308   1.086       .  S
C304       C1825   1.488       .  S
C304        C305   1.410       .  A
C305        C306   1.420       .  A
C305        H309   1.083       .  S
C306        C524   1.493       .  S
C306        C307   1.414       .  A
C307        H310   1.083       .  S
C311        C774   1.486       .  S
C311        C312   1.414       .  A
C311        C316   1.414   1_455  A
C312        C313   1.406       .  A
C312        H317   1.083       .  S
C313       C1805   1.478       .  S
C313        C314   1.393       .  A
C314        C315   1.397   1_455  A
C314        H318   1.086       .  S
C315       C2485   1.484       .  S
C315        C316   1.408       .  A
C316        H319   1.083       .  S
C320        C794   1.485       .  S
C320        C321   1.416       .  A
C320        C325   1.411   1_545  A
C321        C322   1.409       .  A
C321        H326   1.083       .  S
C322       C2194   1.485       .  S
C322        C323   1.398       .  A
C323        C324   1.393   1_545  A
C323        H327   1.085       .  S
C324       C1845   1.471       .  S
C324        C325   1.400       .  A
C325        H328   1.084       .  S
C329        C783   1.481       .  S
C329        C330   1.411       .  A
C329        C334   1.413   1_554  A
C330        C331   1.403       .  A
C330        H335   1.084       .  S
C331       C2425   1.474       .  S
C331        C332   1.393   1_554  A
C332        C333   1.397       .  A
C332        H336   1.086       .  S
C333       C2254   1.478       .  S
C333        C334   1.407       .  A
C334        H337   1.083       .  S
C338       C2705   1.482       .  S
C338        C339   1.399       .  A
C338        C343   1.407       .  A
C339        C340   1.398       .  A
C339        H344   1.085       .  S
C340       C1914   1.482       .  S
C340        C341   1.407       .  A
C341        C342   1.412       .  A
C341        H345   1.084       .  S
C342        C492   1.486       .  S
C342        C343   1.413       .  A
C343        H346   1.083       .  S
C347        C697   1.495       .  S
C347        C348   1.416       .  A
C347        C352   1.418       .  A
C348        C349   1.408       .  A
C348        H353   1.083       .  S
C349       C2685   1.479       .  S
C349        C350   1.393       .  A
C350        C351   1.393       .  A
C350        H354   1.086       .  S
C351       C1894   1.484       .  S
C351        C352   1.410       .  A
C352        H355   1.083       .  S
C356        C670   1.491       .  S
C356        C357   1.414       .  A
C356        C361   1.414       .  A
C357        C358   1.407       .  A
C357        H362   1.083       .  S
C358       C2634   1.478       .  S
C358        C359   1.396       .  A
C359        C360   1.396       .  A
C359        H363   1.085       .  S
C360       C2574   1.477       .  S
C360        C361   1.405       .  A
C361        H364   1.084       .  S
C365        C661   1.494       .  S
C365        C366   1.417       .  A
C365        C370   1.417       .  A
C366        C367   1.408       .  A
C366        H371   1.083       .  S
C367       C2614   1.481       .  S
C367        C368   1.395       .  A
C368        C369   1.393       .  A
C368        H372   1.086       .  S
C369       C2305   1.480       .  S
C369        C370   1.406       .  A
C370        H373   1.083       .  S
C374       C2674   1.476       .  S
C374        C375   1.394       .  A
C374        C379   1.406       .  A
C375        C376   1.395       .  A
C375        H380   1.086       .  S
C376       C2294   1.479       .  S
C376        C377   1.405       .  A
C377        C378   1.414       .  A
C377        H381   1.084       .  S
C378        C650   1.487       .  S
C378        C379   1.414       .  A
C379        H382   1.083       .  S
C383        C724   1.495       .  S
C383        C384   1.420       .  A
C383        C388   1.414       .  A
C384        C385   1.412       .  A
C384        H389   1.083       .  S
C385       C2654   1.489       .  S
C385        C386   1.396       .  A
C386        C387   1.394       .  A
C386        H390   1.085       .  S
C387       C2554   1.477       .  S
C387        C388   1.403       .  A
C388        H391   1.083       .  S
C392       C2594   1.482       .  S
C392        C393   1.411       .  A
C392        C397   1.393       .  A
C393        C394   1.417       .  A
C393        H398   1.083       .  S
C394        C483   1.497       .  S
C394        C395   1.418       .  A
C395        C396   1.410       .  A
C395        H399   1.083       .  S
C396       C2465   1.479       .  S
C396        C397   1.391       .  A
C397        H400   1.086       .  S
O401        C417   1.275       .  A
O401       Zn407   2.011       .  S
C402        O418   1.282       .  A
C402        O415   1.275       .  A
C402       C1705   1.493       .  S
O403        C416   1.277       .  A
O403       Cd410   2.071       .  S
O404        C422   1.278       .  A
O404       Cd413   2.080       .  S
O405        C419   1.275       .  A
O405       Cd409   2.059       .  S
O406        C417   1.281       .  A
O406       Cd409   2.096       .  S
Zn407       O418   2.060       .  S
Zn407       O420   2.048       .  S
Zn407       O412   1.922       .  S
O408        C419   1.279       .  A
O408       Cd413   2.088       .  S
Cd409       O411   2.102       .  S
Cd409       O412   1.981       .  S
Cd410       O414   2.067       .  S
Cd410       O423   2.065       .  S
Cd410       O412   1.968       .  S
O411        C421   1.281       .  A
O412       Cd413   1.979       .  S
Cd413       O415   2.062       .  S
O414        C421   1.276       .  A
C416        O420   1.280       .  A
C416       C1745   1.494       .  S
C417       C1665   1.490       .  S
C419       C1725   1.488       .  S
C421       C1694   1.493       .  S
C422        O423   1.276       .  A
C422       C1645   1.487       .  S
O424        C440   1.278       .  A
O424       Zn430   2.033       .  S
C425        O441   1.284       .  A
C425        O438   1.275       .  A
C425       C1554   1.490       .  S
O426        C439   1.275       .  A
O426       Cd433   2.050       .  S
O427        C445   1.281       .  A
O427       Cd436   2.105       .  S
O428        C442   1.277       .  A
O428       Cd432   2.061       .  S
O429        C440   1.281       .  A
O429       Cd432   2.099       .  S
Zn430       O441   2.069       .  S
Zn430       O443   2.057       .  S
Zn430       O435   1.925       .  S
O431        C442   1.282       .  A
O431       Cd436   2.098       .  S
Cd432       O434   2.097       .  S
Cd432       O435   1.974       .  S
Cd433       O437   2.062       .  S
Cd433       O446   2.059       .  S
Cd433       O435   1.955       .  S
O434        C444   1.280       .  A
O435       Cd436   1.976       .  S
Cd436       O438   2.058       .  S
O437        C444   1.275       .  A
C439        O443   1.282       .  A
C439       C1534   1.488       .  S
C440       C1594   1.497       .  S
C442       C1574   1.489       .  S
C444       C1605   1.489       .  S
C445        O446   1.274       .  A
C445       C1625   1.492       .  S
C447        C448   1.416       .  A
C447        C452   1.414       .  A
C448        C449   1.411       .  A
C448        H453   1.083       .  S
C449       C1614   1.486       .  S
C449        C450   1.397       .  A
C450        C451   1.393       .  A
C450        H454   1.086       .  S
C451       C1505   1.476       .  S
C451        C452   1.405       .  A
C452        H455   1.083       .  S
O456        C472   1.276       .  A
O456       Zn462   2.023       .  S
C457        O473   1.282       .  A
C457        O470   1.277       .  A
C457       C1465   1.494       .  S
O458        C471   1.276       .  A
O458       Cd465   2.075       .  S
O459        C477   1.280       .  A
O459       Cd468   2.100       .  S
O460        C474   1.276       .  A
O460       Cd464   2.067       .  S
O461        C472   1.280       .  A
O461       Cd464   2.094       .  S
Zn462       O473   2.059       .  S
Zn462       O475   2.063       .  S
Zn462       O467   1.935       .  S
O463        C474   1.282       .  A
O463       Cd468   2.110       .  S
Cd464       O466   2.089       .  S
Cd464       O467   1.985       .  S
Cd465       O469   2.070       .  S
Cd465       O478   2.075       .  S
Cd465       O467   1.977       .  S
O466        C476   1.279       .  A
O467       Cd468   1.992       .  S
Cd468       O470   2.066       .  S
O469        C476   1.276       .  A
C471        O475   1.281       .  A
C471       C1425   1.497       .  S
C472       C1485   1.489       .  S
C474       C1454   1.494       .  S
C476       C1514   1.489       .  S
C477        O478   1.278       .  A
C477       C1414   1.494       .  S
C479       C1434   1.495       .  S
C479        C480   1.399       .  A
C479        C484   1.414       .  A
C480        C481   1.395       .  A
C480        H485   1.085       .  S
C481       C1385   1.485       .  S
C481        C482   1.408       .  A
C482        C483   1.416       .  A
C482        H486   1.083       .  S
C483        C484   1.419       .  A
C484        H487   1.083       .  S
C488       C1374   1.482       .  S
C488        C489   1.397       .  A
C488        C493   1.407       .  A
C489        C490   1.395       .  A
C489        H494   1.085       .  S
C490       C1345   1.479       .  S
C490        C491   1.407       .  A
C491        C492   1.413       .  A
C491        H495   1.083       .  S
C492        C493   1.413       .  A
C493        H496   1.083       .  S
O497        C513   1.275       .  A
O497       Zn503   2.013       .  S
C498        O514   1.283       .  A
C498        O511   1.277       .  A
C498       C1394   1.495       .  S
O499        C512   1.275       .  A
O499       Cd506   2.057       .  S
O500        C518   1.282       .  A
O500       Cd509   2.112       .  S
O501        C515   1.276       .  A
O501       Cd505   2.062       .  S
O502        C513   1.282       .  A
O502       Cd505   2.106       .  S
Zn503       O514   2.071       .  S
Zn503       O516   2.054       .  S
Zn503       O508   1.926       .  S
O504        C515   1.283       .  A
O504       Cd509   2.106       .  S
Cd505       O507   2.100       .  S
Cd505       O508   1.984       .  S
Cd506       O510   2.075       .  S
Cd506       O519   2.076       .  S
Cd506       O508   1.965       .  S
O507        C517   1.281       .  A
O508       Cd509   1.976       .  S
Cd509       O511   2.066       .  S
O510        C517   1.277       .  A
C512        O516   1.281       .  A
C512       C1274   1.491       .  S
C513       C1294   1.495       .  S
C515       C1365   1.488       .  S
C517       C1305   1.496       .  S
C518        O519   1.277       .  A
C518       C1325   1.500       .  S
C520       C1405   1.485       .  S
C520        C521   1.394       .  A
C520        C525   1.410       .  A
C521        C522   1.395       .  A
C521        H526   1.085       .  S
C522       C1654   1.476       .  S
C522        C523   1.403       .  A
C523        C524   1.413       .  A
C523        H527   1.083       .  S
C524        C525   1.419       .  A
C525        H528   1.083       .  S
O529        C545   1.276       .  A
O529       Zn535   2.012       .  S
C530        O546   1.283       .  A
C530        O543   1.274       .  A
C530       C1354   1.493       .  S
O531        C544   1.275       .  A
O531       Cd538   2.056       .  S
O532        C550   1.279       .  A
O532       Cd541   2.087       .  S
O533        C547   1.275       .  A
O533       Cd537   2.060       .  S
O534        C545   1.280       .  A
O534       Cd537   2.088       .  S
Zn535       O546   2.070       .  S
Zn535       O548   2.064       .  S
Zn535       O540   1.932       .  S
O536        C547   1.280       .  A
O536       Cd541   2.094       .  S
Cd537       O539   2.093       .  S
Cd537       O540   1.986       .  S
Cd538       O542   2.057       .  S
Cd538       O551   2.059       .  S
Cd538       O540   1.963       .  S
O539        C549   1.279       .  A
O540       Cd541   1.977       .  S
Cd541       O543   2.053       .  S
O542        C549   1.274       .  A
C544        O548   1.282       .  A
C544       C1234   1.494       .  S
C545       C1165   1.488       .  S
C547       C1205   1.490       .  S
C549       C1194   1.490       .  S
C550        O551   1.274       .  A
C550       C1254   1.485       .  S
C552       C1245   1.474       .  S
C552        C553   1.394       .  A
C552        C557   1.403       .  A
C553        C554   1.394   1_554  A
C553        H558   1.086       .  S
C554       C1145   1.475       .  S
C554        C555   1.406       .  A
C555        C556   1.413   1_556  A
C555        H559   1.083       .  S
C556        C557   1.411       .  A
C557        H560   1.084       .  S
O561        C577   1.276       .  A
O561       Zn567   2.021       .  S
C562        O578   1.282       .  A
C562        O575   1.275       .  A
C562       C1125   1.488       .  S
O563        C576   1.275       .  A
O563       Cd570   2.051       .  S
O564        C582   1.281       .  A
O564       Cd573   2.103       .  S
O565        C579   1.277       .  A
O565       Cd569   2.069       .  S
O566        C577   1.280       .  A
O566       Cd569   2.092       .  S
Zn567       O578   2.058       .  S
Zn567       O580   2.059       .  S
Zn567       O572   1.920       .  S
O568        C579   1.282       .  A
O568       Cd573   2.099       .  S
Cd569       O571   2.089       .  S
Cd569       O572   1.972       .  S
Cd570       O574   2.057       .  S
Cd570       O583   2.049       .  S
Cd570       O572   1.959       .  S
O571        C581   1.280       .  A
O572       Cd573   1.975       .  S
Cd573       O575   2.054       .  S
O574        C581   1.274       .  A
C576        O580   1.282       .  A
C576       C1065   1.490       .  S
C577       C1025   1.487       .  S
C579       C1085   1.489       .  S
C581       C1045   1.485       .  S
C582        O583   1.274       .  A
C582       C1105   1.489       .  S
C584       C1005   1.481       .  S
C584        C585   1.406       .  A
C584        C589   1.398   1_565  A
C585        C586   1.410   1_565  A
C585        H590   1.084       .  S
C586        C587   1.412       .  A
C587        C588   1.405       .  A
C587        H591   1.083       .  S
C588       C1134   1.476       .  S
C588        C589   1.395       .  A
C589        H592   1.085       .  S
O593        C609   1.274       .  A
O593       Zn599   2.010       .  S
C594        O610   1.280       .  A
C594        O607   1.276       .  A
C594        C925   1.487       .  S
O595        C608   1.273       .  A
O595       Cd602   2.045       .  S
O596        C614   1.281       .  A
O596       Cd605   2.108       .  S
O597        C611   1.276       .  A
O597       Cd601   2.062       .  S
O598        C609   1.281       .  A
O598       Cd601   2.100       .  S
Zn599       O610   2.050       .  S
Zn599       O612   2.042       .  S
Zn599       O604   1.923       .  S
O600        C611   1.282       .  A
O600       Cd605   2.101       .  S
Cd601       O603   2.097       .  S
Cd601       O604   1.984       .  S
Cd602       O606   2.058       .  S
Cd602       O615   2.051       .  S
Cd602       O604   1.964       .  S
O603        C613   1.281       .  A
O604       Cd605   1.984       .  S
Cd605       O607   2.061       .  S
O606        C613   1.275       .  A
C608        O612   1.279       .  A
C608       C1014   1.479       .  S
C609        C945   1.492       .  S
C611        C965   1.492       .  S
C613       C1154   1.487       .  S
C614        O615   1.274       .  A
C614        C985   1.492       .  S
O616        C632   1.277       .  A
O616       Zn622   2.032       .  S
C617        O633   1.282       .  A
C617        O630   1.275       .  A
C617        C865   1.482       .  S
O618        C631   1.274       .  A
O618       Cd625   2.051       .  S
O619        C637   1.280       .  A
O619       Cd628   2.097       .  S
O620        C634   1.277       .  A
O620       Cd624   2.077       .  S
O621        C632   1.280       .  A
O621       Cd624   2.090       .  S
Zn622       O633   2.056       .  S
Zn622       O635   2.056       .  S
Zn622       O627   1.930       .  S
O623        C634   1.281       .  A
O623       Cd628   2.099       .  S
Cd624       O626   2.090       .  S
Cd624       O627   1.980       .  S
Cd625       O629   2.054       .  S
Cd625       O638   2.063       .  S
Cd625       O627   1.964       .  S
O626        C636   1.279       .  A
O627       Cd628   1.977       .  S
Cd628       O630   2.055       .  S
O629        C636   1.275       .  A
C631        O635   1.280       .  A
C631        C894   1.487       .  S
C632        C905   1.487       .  S
C634        C805   1.492       .  S
C636        C845   1.487       .  S
C637        O638   1.275       .  A
C637        C825   1.491       .  S
C639        C640   1.414       .  A
C639        C644   1.411   1_455  A
C640        C641   1.406       .  A
C640        H645   1.083       .  S
C641        C914   1.479       .  S
C641        C642   1.396       .  A
C642        C643   1.396   1_455  A
C642        H646   1.085   1_455  S
C643        C994   1.474       .  S
C643        C644   1.403       .  A
C644        H647   1.084       .  S
C648        C885   1.479       .  S
C648        C649   1.404       .  A
C648        C653   1.396       .  A
C649        C650   1.412       .  A
C649        H654   1.084       .  S
C650        C651   1.415       .  A
C651        C652   1.408       .  A
C651        H655   1.083       .  S
C652       C1754   1.484       .  S
C652        C653   1.398       .  A
C653        H656   1.085       .  S
C657       C1714   1.486       .  S
C657        C658   1.398       .  A
C657        C662   1.410       .  A
C658        C659   1.393       .  A
C658        H663   1.085       .  S
C659        C874   1.476       .  S
C659        C660   1.404       .  A
C660        C661   1.414       .  A
C660        H664   1.083       .  S
C661        C662   1.418       .  A
C662        H665   1.083       .  S
C666       C1634   1.486       .  S
C666        C667   1.397       .  A
C666        C671   1.410       .  A
C667        C668   1.394       .  A
C667        H672   1.085       .  S
C668       C1114   1.478       .  S
C668        C669   1.403       .  A
C669        C670   1.413       .  A
C669        H673   1.084       .  S
C670        C671   1.417       .  A
C671        H674   1.083       .  S
C675        C676   1.414       .  A
C675        C680   1.411   1_455  A
C676        C677   1.407       .  A
C676        H681   1.083       .  S
C677       C1685   1.483       .  S
C677        C678   1.398   1_455  A
C678        C679   1.395       .  A
C678        H682   1.085       .  S
C679       C1054   1.474       .  S
C679        C680   1.402       .  A
C680        H683   1.084       .  S
C684        C685   1.413   1_455  A
C684        C689   1.411       .  A
C685        C686   1.407   1_655  A
C685        H690   1.083       .  S
C686       C1034   1.483   1_455  S
C686        C687   1.398       .  A
C687        C688   1.398       .  A
C687        H691   1.085       .  S
C688       C1674   1.480       .  S
C688        C689   1.405       .  A
C689        H692   1.084       .  S
C693       C1334   1.483       .  S
C693        C694   1.395       .  A
C693        C698   1.410       .  A
C694        C695   1.396       .  A
C694        H699   1.086       .  S
C695       C1225   1.480       .  S
C695        C696   1.408       .  A
C696        C697   1.416       .  A
C696        H700   1.083       .  S
C697        C698   1.417       .  A
C698        H701   1.083       .  S
C702        C703   1.411   1_545  A
C702        C707   1.416       .  A
C703        C704   1.402       .  A
C703        H708   1.084       .  S
C704       C1185   1.473       .  S
C704        C705   1.393   1_565  A
C705        C706   1.395       .  A
C705        H709   1.086       .  S
C706       C1545   1.481       .  S
C706        C707   1.408       .  A
C707        H710   1.083       .  S
C711        C712   1.416   1_554  A
C711        C716   1.413       .  A
C712        C713   1.408       .  A
C712        H717   1.083       .  S
C713        C814   1.482       .  S
C713        C714   1.397   1_556  A
C714        C715   1.395       .  A
C714        H718   1.085       .  S
C715       C1314   1.478       .  S
C715        C716   1.406       .  A
C716        H719   1.083       .  S
C720       C1565   1.475       .  S
C720        C721   1.393       .  A
C720        C725   1.406       .  A
C721        C722   1.393       .  A
C721        H726   1.086       .  S
C722       C1094   1.479       .  S
C722        C723   1.407       .  A
C723        C724   1.418       .  A
C723        H727   1.083       .  S
C724        C725   1.415       .  A
C725        H728   1.083       .  S
C729       C1474   1.482       .  S
C729        C730   1.397       .  A
C729        C734   1.409       .  A
C730        C731   1.394       .  A
C730        H735   1.085       .  S
C731       C1265   1.472       .  S
C731        C732   1.401       .  A
C732        C733   1.411       .  A
C732        H736   1.084       .  S
C733        C734   1.415       .  A
C734        H737   1.083       .  S
C738        C739   1.414       .  A
C738        C743   1.413   1_554  A
C739        C740   1.408       .  A
C739        H744   1.083       .  S
C740       C1285   1.478       .  S
C740        C741   1.396       .  A
C741        C742   1.396   1_554  A
C741        H745   1.085       .  S
C742        C834   1.479       .  S
C742        C743   1.404       .  A
C743        H746   1.084       .  S
C747        C748   1.414       .  A
C747        C752   1.410   1_545  A
C748        C749   1.408       .  A
C748        H753   1.083       .  S
C749       C1525   1.481       .  S
C749        C750   1.396       .  A
C750        C751   1.395   1_545  A
C750        H754   1.085       .  S
C751       C1174   1.473       .  S
C751        C752   1.402       .  A
C752        H755   1.084       .  S
C756        C757   1.418       .  A
C756        C761   1.414       .  A
C757        C758   1.410       .  A
C757        H762   1.083       .  S
C758       C1585   1.488       .  S
C758        C759   1.398       .  A
C759        C760   1.396       .  A
C759        H763   1.085       .  S
C760       C1494   1.477       .  S
C760        C761   1.403       .  A
C761        H764   1.083       .  S
C765        C766   1.415       .  A
C765        C770   1.414       .  A
C766        C767   1.408       .  A
C766        H771   1.083       .  S
C767       C1734   1.485       .  S
C767        C768   1.397       .  A
C768        C769   1.393       .  A
C768        H772   1.085       .  S
C769       C1445   1.478       .  S
C769        C770   1.405       .  A
C770        H773   1.083       .  S
C774        C775   1.412       .  A
C774        C779   1.413   1_455  A
C775        C776   1.407       .  A
C775        H780   1.084       .  S
C776        C854   1.485       .  S
C776        C777   1.399   1_455  A
C777        C778   1.394       .  A
C777        H781   1.085       .  S
C778        C974   1.478       .  S
C778        C779   1.406       .  A
C779        H782   1.083       .  S
C783        C784   1.412       .  A
C783        C788   1.410   1_554  A
C784        C785   1.407       .  A
C784        H789   1.083       .  S
C785       C1214   1.476       .  S
C785        C786   1.396       .  A
C786        C787   1.395   1_554  A
C786        H790   1.085       .  S
C787        C954   1.475       .  S
C787        C788   1.404       .  A
C788        H791   1.084       .  S
C792        C934   1.480   1_545  S
C792        C793   1.407       .  A
C792        C797   1.397       .  A
C793        C794   1.413       .  A
C793        H798   1.083   1_545  S
C794        C795   1.413       .  A
C795        C796   1.403       .  A
C795        H799   1.084       .  S
C796       C1074   1.476       .  S
C796        C797   1.395       .  A
C797        H800   1.085       .  S
C801        C802   1.405       .  A
C801        C806   1.400       .  A
C801        H811   1.084       .  S
C802        C807   1.488       .  S
C802        C803   1.404       .  A
C803        C804   1.404       .  A
C803        F808   1.357       .  S
C804        C805   1.411       .  A
C804        H809   1.083       .  S
C805        C806   1.409       .  A
C806        F810   1.357       .  S
C807        C812   1.406       .  A
C807        C816   1.407       .  A
C812        C813   1.398       .  A
C812        F817   1.358       .  S
C813        C814   1.404       .  A
C813        H818   1.084   1_556  S
C814        C815   1.406       .  A
C815        C816   1.406       .  A
C815        F819   1.357       .  S
C816        H820   1.083       .  S
C821        C822   1.402       .  A
C821        C826   1.400       .  A
C821        H831   1.084       .  S
C822        C827   1.478       .  S
C822        C823   1.401       .  A
C823        C824   1.401       .  A
C823        F828   1.357       .  S
C824        C825   1.411       .  A
C824        H829   1.083       .  S
C825        C826   1.411       .  A
C826        F830   1.357       .  S
C827        C832   1.406       .  A
C827        C836   1.401   1_556  A
C832        C833   1.401       .  A
C832        F837   1.357       .  S
C833        C834   1.403       .  A
C833        H838   1.083       .  S
C834        C835   1.408   1_556  A
C835        C836   1.399       .  A
C835        F839   1.358       .  S
C836        H840   1.083       .  S
C841        C842   1.404   1_556  A
C841        C846   1.398       .  A
C841        H851   1.084       .  S
C842        C847   1.479       .  S
C842        C843   1.402       .  A
C843        C844   1.399   1_554  A
C843        F848   1.357       .  S
C844        C845   1.411       .  A
C844        H849   1.083       .  S
C845        C846   1.409       .  A
C846        F850   1.357       .  S
C847        C852   1.408       .  A
C847        C856   1.400       .  A
C852        C853   1.403       .  A
C852        F857   1.357       .  S
C853        C854   1.405       .  A
C853        H858   1.083       .  S
C854        C855   1.410   1_455  A
C855        C856   1.394   1_655  A
C855        F859   1.358       .  S
C856        H860   1.083   1_455  S
C861        C862   1.402       .  A
C861        C866   1.397       .  A
C861        H871   1.083       .  S
C862        C867   1.485       .  S
C862        C863   1.409       .  A
C863        C864   1.402       .  A
C863        F868   1.357       .  S
C864        C865   1.405       .  A
C864        H869   1.083       .  S
C865        C866   1.410       .  A
C866        F870   1.358       .  S
C867        C872   1.408       .  A
C867        C876   1.405       .  A
C872        C873   1.400       .  A
C872        F877   1.358       .  S
C873        C874   1.402       .  A
C873        H878   1.083       .  S
C874        C875   1.405       .  A
C875        C876   1.400       .  A
C875        F879   1.357       .  S
C876        H880   1.083       .  S
C881        C882   1.403       .  A
C881        C886   1.398       .  A
C881        H891   1.083       .  S
C882        C887   1.482   1_655  S
C882        C883   1.408       .  A
C883        C884   1.401       .  A
C883        F888   1.357       .  S
C884        C885   1.403       .  A
C884        H889   1.083       .  S
C885        C886   1.407       .  A
C886        F890   1.358       .  S
C887        C892   1.403   1_455  A
C887        C896   1.405       .  A
C892        C893   1.399   1_655  A
C892        F897   1.357       .  S
C893        C894   1.410       .  A
C893        H898   1.083       .  S
C894        C895   1.408       .  A
C895        C896   1.400       .  A
C895        F899   1.357       .  S
C896        H900   1.084       .  S
C901        C902   1.403       .  A
C901        C906   1.402       .  A
C901        H911   1.083       .  S
C902        C907   1.486       .  S
C902        C903   1.408       .  A
C903        C904   1.400       .  A
C903        F908   1.358       .  S
C904        C905   1.405       .  A
C904        H909   1.083       .  S
C905        C906   1.411       .  A
C906        F910   1.357       .  S
C907        C912   1.408       .  A
C907        C916   1.405       .  A
C912        C913   1.403       .  A
C912        F917   1.357       .  S
C913        C914   1.403       .  A
C913        H918   1.083       .  S
C914        C915   1.406       .  A
C915        C916   1.399       .  A
C915        F919   1.358   1_455  S
C916        H920   1.083       .  S
C921        C922   1.406   1_655  A
C921        C926   1.401       .  A
C921        H931   1.084       .  S
C922        C927   1.485       .  S
C922        C923   1.403       .  A
C923        C924   1.399   1_455  A
C923        F928   1.357       .  S
C924        C925   1.409       .  A
C924        H929   1.083       .  S
C925        C926   1.408       .  A
C926        F930   1.357       .  S
C927        C932   1.409       .  A
C927        C936   1.403   1_565  A
C932        C933   1.402       .  A
C932        F937   1.357       .  S
C933        C934   1.403       .  A
C933        H938   1.083       .  S
C934        C935   1.408   1_565  A
C935        C936   1.398       .  A
C935        F939   1.358       .  S
C936        H940   1.083       .  S
C941        C942   1.401       .  A
C941        C946   1.399   1_545  A
C941        H951   1.084       .  S
C942        C947   1.485       .  S
C942        C943   1.409   1_545  A
C943        C944   1.401       .  A
C943        F948   1.358       .  S
C944        C945   1.406       .  A
C944        H949   1.083       .  S
C945        C946   1.415       .  A
C946        F950   1.357       .  S
C947        C952   1.406       .  A
C947        C956   1.407       .  A
C952        C953   1.398       .  A
C952        F957   1.357   1_556  S
C953        C954   1.404       .  A
C953        H958   1.084   1_556  S
C954        C955   1.403       .  A
C955        C956   1.400       .  A
C955        F959   1.357       .  S
C956        H960   1.083       .  S
C961        C962   1.408   1_556  A
C961        C966   1.402       .  A
C961        H971   1.083       .  S
C962        C967   1.492       .  S
C962        C963   1.406       .  A
C963        C964   1.399   1_554  A
C963        F968   1.358       .  S
C964        C965   1.410       .  A
C964        H969   1.083       .  S
C965        C966   1.409       .  A
C966        F970   1.357       .  S
C967        C972   1.411       .  A
C967        C976   1.407       .  A
C972        C973   1.400       .  A
C972        F977   1.357       .  S
C973        C974   1.402       .  A
C973        H978   1.084       .  S
C974        C975   1.405       .  A
C975        C976   1.401       .  A
C975        F979   1.357   1_655  S
C976        H980   1.083   1_655  S
C981        C982   1.406       .  A
C981        C986   1.403       .  A
C981        H991   1.083       .  S
C982        C987   1.485       .  S
C982        C983   1.403       .  A
C983        C984   1.398       .  A
C983        F988   1.358       .  S
C984        C985   1.411       .  A
C984        H989   1.083       .  S
C985        C986   1.410       .  A
C986        F990   1.357       .  S
C987        C992   1.408       .  A
C987        C996   1.405       .  A
C992        C993   1.401       .  A
C992        F997   1.357       .  S
C993        C994   1.402       .  A
C993        H998   1.083   1_655  S
C994        C995   1.404       .  A
C995        C996   1.397       .  A
C995        F999   1.358       .  S
C996       H1000   1.083       .  S
C1001      C1002   1.406       .  A
C1001      C1006   1.401       .  A
C1001      H1011   1.083       .  S
C1002      C1007   1.480       .  S
C1002      C1003   1.404       .  A
C1003      C1004   1.395       .  A
C1003      F1008   1.358       .  S
C1004      C1005   1.406       .  A
C1004      H1009   1.084       .  S
C1005      C1006   1.405       .  A
C1006      F1010   1.357       .  S
C1007      C1012   1.406       .  A
C1007      C1016   1.403       .  A
C1012      C1013   1.397       .  A
C1012      F1017   1.357       .  S
C1013      C1014   1.404       .  A
C1013      H1018   1.083       .  S
C1014      C1015   1.410       .  A
C1015      C1016   1.398       .  A
C1015      F1019   1.358       .  S
C1016      H1020   1.083       .  S
C1021      C1022   1.404       .  A
C1021      C1026   1.402       .  A
C1021      H1031   1.083       .  S
C1022      C1027   1.489       .  S
C1022      C1023   1.409       .  A
C1023      C1024   1.399       .  A
C1023      F1028   1.357       .  S
C1024      C1025   1.404       .  A
C1024      H1029   1.083       .  S
C1025      C1026   1.412       .  A
C1026      F1030   1.358       .  S
C1027      C1032   1.409       .  A
C1027      C1036   1.405       .  A
C1032      C1033   1.405       .  A
C1032      F1037   1.357       .  S
C1033      C1034   1.404       .  A
C1033      H1038   1.083       .  S
C1034      C1035   1.406       .  A
C1035      C1036   1.397       .  A
C1035      F1039   1.358   1_655  S
C1036      H1040   1.083       .  S
C1041      C1042   1.400       .  A
C1041      C1046   1.401       .  A
C1041      H1051   1.083       .  S
C1042      C1047   1.475       .  S
C1042      C1043   1.404       .  A
C1043      C1044   1.396       .  A
C1043      F1048   1.357       .  S
C1044      C1045   1.405       .  A
C1044      H1049   1.083       .  S
C1045      C1046   1.414       .  A
C1046      F1050   1.358       .  S
C1047      C1052   1.403       .  A
C1047      C1056   1.404       .  A
C1052      C1053   1.397   1_655  A
C1052      F1057   1.357   1_655  S
C1053      C1054   1.403   1_455  A
C1053      H1058   1.083       .  S
C1054      C1055   1.405       .  A
C1055      C1056   1.401       .  A
C1055      F1059   1.358       .  S
C1056      H1060   1.083       .  S
C1061      C1062   1.405   1_655  A
C1061      C1066   1.398       .  A
C1061      H1071   1.084       .  S
C1062      C1067   1.485       .  S
C1062      C1063   1.404       .  A
C1063      C1064   1.401   1_455  A
C1063      F1068   1.357       .  S
C1064      C1065   1.412       .  A
C1064      H1069   1.083       .  S
C1065      C1066   1.409       .  A
C1066      F1070   1.357       .  S
C1067      C1072   1.406       .  A
C1067      C1076   1.407       .  A
C1072      C1073   1.394       .  A
C1072      F1077   1.358       .  S
C1073      C1074   1.402       .  A
C1073      H1078   1.084       .  S
C1074      C1075   1.406       .  A
C1075      C1076   1.405       .  A
C1075      F1079   1.357   1_545  S
C1076      H1080   1.083       .  S
C1081      C1082   1.408       .  A
C1081      C1086   1.400       .  A
C1081      H1091   1.083       .  S
C1082      C1087   1.492       .  S
C1082      C1083   1.406       .  A
C1083      C1084   1.401       .  A
C1083      F1088   1.357       .  S
C1084      C1085   1.409       .  A
C1084      H1089   1.083       .  S
C1085      C1086   1.407       .  A
C1086      F1090   1.357       .  S
C1087      C1092   1.408       .  A
C1087      C1096   1.408       .  A
C1092      C1093   1.398       .  A
C1092      F1097   1.358       .  S
C1093      C1094   1.404       .  A
C1093      H1098   1.084       .  S
C1094      C1095   1.404       .  A
C1095      C1096   1.403       .  A
C1095      F1099   1.357       .  S
C1096      H1100   1.083       .  S
C1101      C1102   1.405   1_545  A
C1101      C1106   1.400       .  A
C1101      H1111   1.084       .  S
C1102      C1107   1.480       .  S
C1102      C1103   1.401   1_565  A
C1103      C1104   1.399       .  A
C1103      F1108   1.357   1_545  S
C1104      C1105   1.411       .  A
C1104      H1109   1.083       .  S
C1105      C1106   1.410       .  A
C1106      F1110   1.357       .  S
C1107      C1112   1.408       .  A
C1107      C1116   1.402       .  A
C1112      C1113   1.402       .  A
C1112      F1117   1.357       .  S
C1113      C1114   1.403       .  A
C1113      H1118   1.083       .  S
C1114      C1115   1.407       .  A
C1115      C1116   1.397       .  A
C1115      F1119   1.358       .  S
C1116      H1120   1.083       .  S
C1121      C1122   1.405       .  A
C1121      C1126   1.402       .  A
C1121      H1131   1.083       .  S
C1122      C1127   1.482       .  S
C1122      C1123   1.402       .  A
C1123      C1124   1.397       .  A
C1123      F1128   1.358       .  S
C1124      C1125   1.410       .  A
C1124      H1129   1.083       .  S
C1125      C1126   1.409       .  A
C1126      F1130   1.357       .  S
C1127      C1132   1.406       .  A
C1127      C1136   1.405       .  A
C1132      C1133   1.398       .  A
C1132      F1137   1.358       .  S
C1133      C1134   1.403       .  A
C1133      H1138   1.083       .  S
C1134      C1135   1.405       .  A
C1135      C1136   1.402       .  A
C1135      F1139   1.357       .  S
C1136      H1140   1.083       .  S
C1141      C1142   1.406       .  A
C1141      C1146   1.400       .  A
C1141      H1151   1.083       .  S
C1142      C1147   1.486       .  S
C1142      C1143   1.407       .  A
C1143      C1144   1.400       .  A
C1143      F1148   1.358       .  S
C1144      C1145   1.404       .  A
C1144      H1149   1.083       .  S
C1145      C1146   1.403       .  A
C1146      F1150   1.357       .  S
C1147      C1152   1.408       .  A
C1147      C1156   1.403       .  A
C1152      C1153   1.400       .  A
C1152      F1157   1.358       .  S
C1153      C1154   1.406       .  A
C1153      H1158   1.083       .  S
C1154      C1155   1.412       .  A
C1155      C1156   1.400       .  A
C1155      F1159   1.357       .  S
C1156      H1160   1.083       .  S
C1161      C1162   1.407       .  A
C1161      C1166   1.400       .  A
C1161      H1171   1.083       .  S
C1162      C1167   1.486       .  S
C1162      C1163   1.404       .  A
C1163      C1164   1.397       .  A
C1163      F1168   1.357       .  S
C1164      C1165   1.409       .  A
C1164      H1169   1.083       .  S
C1165      C1166   1.409       .  A
C1166      F1170   1.357       .  S
C1167      C1172   1.410       .  A
C1167      C1176   1.405       .  A
C1172      C1173   1.399       .  A
C1172      F1177   1.357       .  S
C1173      C1174   1.401       .  A
C1173      H1178   1.084       .  S
C1174      C1175   1.405   1_565  A
C1175      C1176   1.398   1_545  A
C1175      F1179   1.357       .  S
C1176      H1180   1.083   1_565  S
C1181      C1182   1.407       .  A
C1181      C1186   1.403       .  A
C1181      H1191   1.083       .  S
C1182      C1187   1.481       .  S
C1182      C1183   1.405       .  A
C1183      C1184   1.394       .  A
C1183      F1188   1.358       .  S
C1184      C1185   1.403       .  A
C1184      H1189   1.084       .  S
C1185      C1186   1.404       .  A
C1186      F1190   1.357   1_565  S
C1187      C1192   1.406       .  A
C1187      C1196   1.400       .  A
C1192      C1193   1.401       .  A
C1192      F1197   1.358       .  S
C1193      C1194   1.408       .  A
C1193      H1198   1.083       .  S
C1194      C1195   1.413       .  A
C1195      C1196   1.397       .  A
C1195      F1199   1.357       .  S
C1196      H1200   1.083       .  S
C1201      C1202   1.407   1_565  A
C1201      C1206   1.402       .  A
C1201      H1211   1.083       .  S
C1202      C1207   1.488       .  S
C1202      C1203   1.404       .  A
C1203      C1204   1.397   1_545  A
C1203      F1208   1.357       .  S
C1204      C1205   1.410       .  A
C1204      H1209   1.083       .  S
C1205      C1206   1.409       .  A
C1206      F1210   1.357       .  S
C1207      C1212   1.411       .  A
C1207      C1216   1.405       .  A
C1212      C1213   1.401       .  A
C1212      F1217   1.357       .  S
C1213      C1214   1.402       .  A
C1213      H1218   1.083       .  S
C1214      C1215   1.405       .  A
C1215      C1216   1.399       .  A
C1215      F1219   1.357   1_554  S
C1216      H1220   1.083       .  S
C1221      C1222   1.408       .  A
C1221      C1226   1.400       .  A
C1221      H1231   1.083       .  S
C1222      C1227   1.499       .  S
C1222      C1223   1.413       .  A
C1223      C1224   1.403       .  A
C1223      F1228   1.357       .  S
C1224      C1225   1.402       .  A
C1224      H1229   1.083       .  S
C1225      C1226   1.405       .  A
C1226      F1230   1.357       .  S
C1227      C1232   1.413       .  A
C1227      C1236   1.405       .  A
C1232      C1233   1.403       .  A
C1232      F1237   1.357       .  S
C1233      C1234   1.406       .  A
C1233      H1238   1.083       .  S
C1234      C1235   1.413       .  A
C1235      C1236   1.400       .  A
C1235      F1239   1.357       .  S
C1236      H1240   1.082       .  S
C1241      C1242   1.406       .  A
C1241      C1246   1.400       .  A
C1241      H1251   1.083       .  S
C1242      C1247   1.479       .  S
C1242      C1243   1.404       .  A
C1243      C1244   1.397       .  A
C1243      F1248   1.357       .  S
C1244      C1245   1.405       .  A
C1244      H1249   1.084       .  S
C1245      C1246   1.403       .  A
C1246      F1250   1.357       .  S
C1247      C1252   1.404       .  A
C1247      C1256   1.402       .  A
C1252      C1253   1.396       .  A
C1252      F1257   1.358       .  S
C1253      C1254   1.406       .  A
C1253      H1258   1.083       .  S
C1254      C1255   1.413       .  A
C1255      C1256   1.401       .  A
C1255      F1259   1.358       .  S
C1256      H1260   1.083       .  S
C1261      C1262   1.407       .  A
C1261      C1266   1.401       .  A
C1261      H1271   1.083       .  S
C1262      C1267   1.487       .  S
C1262      C1263   1.409       .  A
C1263      C1264   1.397       .  A
C1263      F1268   1.357       .  S
C1264      C1265   1.401       .  A
C1264      H1269   1.084       .  S
C1265      C1266   1.404       .  A
C1266      F1270   1.357       .  S
C1267      C1272   1.408       .  A
C1267      C1276   1.402       .  A
C1272      C1273   1.401       .  A
C1272      F1277   1.358       .  S
C1273      C1274   1.407       .  A
C1273      H1278   1.083       .  S
C1274      C1275   1.413       .  A
C1275      C1276   1.398       .  A
C1275      F1279   1.357       .  S
C1276      H1280   1.083       .  S
C1281      C1282   1.408       .  A
C1281      C1286   1.401       .  A
C1281      H1291   1.083       .  S
C1282      C1287   1.492       .  S
C1282      C1283   1.408       .  A
C1283      C1284   1.402       .  A
C1283      F1288   1.357   1_554  S
C1284      C1285   1.404       .  A
C1284      H1289   1.083   1_554  S
C1285      C1286   1.403       .  A
C1286      F1290   1.358       .  S
C1287      C1292   1.411       .  A
C1287      C1296   1.402       .  A
C1292      C1293   1.404       .  A
C1292      F1297   1.357       .  S
C1293      C1294   1.407       .  A
C1293      H1298   1.083       .  S
C1294      C1295   1.415       .  A
C1295      C1296   1.399       .  A
C1295      F1299   1.357       .  S
C1296      H1300   1.084       .  S
C1301      C1302   1.405       .  A
C1301      C1306   1.403       .  A
C1301      H1311   1.083       .  S
C1302      C1307   1.494       .  S
C1302      C1303   1.409       .  A
C1303      C1304   1.401       .  A
C1303      F1308   1.357       .  S
C1304      C1305   1.407       .  A
C1304      H1309   1.083       .  S
C1305      C1306   1.414       .  A
C1306      F1310   1.357       .  S
C1307      C1312   1.410       .  A
C1307      C1316   1.408       .  A
C1312      C1313   1.403       .  A
C1312      F1317   1.357       .  S
C1313      C1314   1.403       .  A
C1313      H1318   1.083       .  S
C1314      C1315   1.403       .  A
C1315      C1316   1.400       .  A
C1315      F1319   1.357   1_554  S
C1316      H1320   1.083       .  S
C1321      C1322   1.406       .  A
C1321      C1326   1.404       .  A
C1321      H1331   1.083       .  S
C1322      C1327   1.495       .  S
C1322      C1323   1.406       .  A
C1323      C1324   1.404       .  A
C1323      F1328   1.358       .  S
C1324      C1325   1.411       .  A
C1324      H1329   1.083       .  S
C1325      C1326   1.412       .  A
C1326      F1330   1.357       .  S
C1327      C1332   1.410       .  A
C1327      C1336   1.406       .  A
C1332      C1333   1.405       .  A
C1332      F1337   1.357       .  S
C1333      C1334   1.404       .  A
C1333      H1338   1.083       .  S
C1334      C1335   1.406       .  A
C1335      C1336   1.402       .  A
C1335      F1339   1.358       .  S
C1336      H1340   1.083       .  S
C1341      C1342   1.406       .  A
C1341      C1346   1.401       .  A
C1341      H1351   1.083       .  S
C1342      C1347   1.486   1_556  S
C1342      C1343   1.406       .  A
C1343      C1344   1.401       .  A
C1343      F1348   1.357       .  S
C1344      C1345   1.405       .  A
C1344      H1349   1.083       .  S
C1345      C1346   1.404       .  A
C1346      F1350   1.357       .  S
C1347      C1352   1.409       .  A
C1347      C1356   1.400       .  A
C1352      C1353   1.404       .  A
C1352      F1357   1.357       .  S
C1353      C1354   1.407       .  A
C1353      H1358   1.083       .  S
C1354      C1355   1.415       .  A
C1355      C1356   1.398       .  A
C1355      F1359   1.357       .  S
C1356      H1360   1.084   1_554  S
C1361      C1362   1.402   1_556  A
C1361      C1366   1.401   1_556  A
C1361      H1371   1.083       .  S
C1362      C1367   1.487   1_554  S
C1362      C1363   1.409       .  A
C1363      C1364   1.400       .  A
C1363      F1368   1.357       .  S
C1364      C1365   1.404       .  A
C1364      H1369   1.083       .  S
C1365      C1366   1.414       .  A
C1366      F1370   1.358       .  S
C1367      C1372   1.405       .  A
C1367      C1376   1.408       .  A
C1372      C1373   1.396       .  A
C1372      F1377   1.358       .  S
C1373      C1374   1.405       .  A
C1373      H1378   1.084       .  S
C1374      C1375   1.405       .  A
C1375      C1376   1.404       .  A
C1375      F1379   1.357       .  S
C1376      H1380   1.083       .  S
C1381      C1382   1.405       .  A
C1381      C1386   1.401       .  A
C1381      H1391   1.083       .  S
C1382      C1387   1.494       .  S
C1382      C1383   1.412       .  A
C1383      C1384   1.404       .  A
C1383      F1388   1.357       .  S
C1384      C1385   1.403       .  A
C1384      H1389   1.083       .  S
C1385      C1386   1.407       .  A
C1386      F1390   1.357       .  S
C1387      C1392   1.405       .  A
C1387      C1396   1.409       .  A
C1392      C1393   1.400       .  A
C1392      F1397   1.357       .  S
C1393      C1394   1.410       .  A
C1393      H1398   1.083       .  S
C1394      C1395   1.409       .  A
C1395      C1396   1.405       .  A
C1395      F1399   1.357       .  S
C1396      H1400   1.083       .  S
C1401      C1402   1.403       .  A
C1401      C1406   1.401       .  A
C1401      H1411   1.083       .  S
C1402      C1407   1.488       .  S
C1402      C1403   1.409       .  A
C1403      C1404   1.403       .  A
C1403      F1408   1.357       .  S
C1404      C1405   1.402       .  A
C1404      H1409   1.083       .  S
C1405      C1406   1.410       .  A
C1406      F1410   1.358       .  S
C1407      C1412   1.404       .  A
C1407      C1416   1.406       .  A
C1412      C1413   1.400       .  A
C1412      F1417   1.357       .  S
C1413      C1414   1.409       .  A
C1413      H1418   1.083       .  S
C1414      C1415   1.412       .  A
C1415      C1416   1.404       .  A
C1415      F1419   1.357       .  S
C1416      H1420   1.084       .  S
C1421      C1422   1.403       .  A
C1421      C1426   1.405       .  A
C1421      H1431   1.084       .  S
C1422      C1427   1.494       .  S
C1422      C1423   1.410       .  A
C1423      C1424   1.403       .  A
C1423      F1428   1.357       .  S
C1424      C1425   1.406       .  A
C1424      H1429   1.083       .  S
C1425      C1426   1.415       .  A
C1426      F1430   1.357       .  S
C1427      C1432   1.405       .  A
C1427      C1436   1.409       .  A
C1432      C1433   1.399       .  A
C1432      F1437   1.358       .  S
C1433      C1434   1.409       .  A
C1433      H1438   1.083       .  S
C1434      C1435   1.408       .  A
C1435      C1436   1.409       .  A
C1435      F1439   1.357       .  S
C1436      H1440   1.083       .  S
C1441      C1442   1.403       .  A
C1441      C1446   1.399       .  A
C1441      H1451   1.083       .  S
C1442      C1447   1.486       .  S
C1442      C1443   1.409       .  A
C1443      C1444   1.403       .  A
C1443      F1448   1.357       .  S
C1444      C1445   1.403       .  A
C1444      H1449   1.083       .  S
C1445      C1446   1.406       .  A
C1446      F1450   1.358       .  S
C1447      C1452   1.402       .  A
C1447      C1456   1.406       .  A
C1452      C1453   1.401       .  A
C1452      F1457   1.357       .  S
C1453      C1454   1.412       .  A
C1453      H1458   1.083       .  S
C1454      C1455   1.410       .  A
C1455      C1456   1.403       .  A
C1455      F1459   1.357       .  S
C1456      H1460   1.084       .  S
C1461      C1462   1.406       .  A
C1461      C1466   1.402       .  A
C1461      H1471   1.083       .  S
C1462      C1467   1.487       .  S
C1462      C1463   1.403       .  A
C1463      C1464   1.400       .  A
C1463      F1468   1.357       .  S
C1464      C1465   1.411       .  A
C1464      H1469   1.083       .  S
C1465      C1466   1.410       .  A
C1466      F1470   1.357       .  S
C1467      C1472   1.410       .  A
C1467      C1476   1.403       .  A
C1472      C1473   1.405       .  A
C1472      F1477   1.357       .  S
C1473      C1474   1.404       .  A
C1473      H1478   1.083       .  S
C1474      C1475   1.407       .  A
C1475      C1476   1.397       .  A
C1475      F1479   1.358       .  S
C1476      H1480   1.083       .  S
C1481      C1482   1.402       .  A
C1481      C1486   1.402       .  A
C1481      H1491   1.083       .  S
C1482      C1487   1.486       .  S
C1482      C1483   1.408       .  A
C1483      C1484   1.399       .  A
C1483      F1488   1.358       .  S
C1484      C1485   1.405       .  A
C1484      H1489   1.083       .  S
C1485      C1486   1.414       .  A
C1486      F1490   1.357       .  S
C1487      C1492   1.409       .  A
C1487      C1496   1.404       .  A
C1492      C1493   1.404       .  A
C1492      F1497   1.357       .  S
C1493      C1494   1.404       .  A
C1493      H1498   1.083       .  S
C1494      C1495   1.404       .  A
C1495      C1496   1.396       .  A
C1495      F1499   1.358       .  S
C1496      H1500   1.083       .  S
C1501      C1502   1.405       .  A
C1501      C1506   1.404       .  A
C1501      H1511   1.083       .  S
C1502      C1507   1.485       .  S
C1502      C1503   1.407       .  A
C1503      C1504   1.397       .  A
C1503      F1508   1.358       .  S
C1504      C1505   1.402       .  A
C1504      H1509   1.083       .  S
C1505      C1506   1.407       .  A
C1506      F1510   1.357       .  S
C1507      C1512   1.404       .  A
C1507      C1516   1.404       .  A
C1512      C1513   1.403       .  A
C1512      F1517   1.357       .  S
C1513      C1514   1.410       .  A
C1513      H1518   1.083       .  S
C1514      C1515   1.410       .  A
C1515      C1516   1.398       .  A
C1515      F1519   1.358       .  S
C1516      H1520   1.084       .  S
C1521      C1522   1.401       .  A
C1521      C1526   1.396       .  A
C1521      H1531   1.083   1_545  S
C1522      C1527   1.483       .  S
C1522      C1523   1.409       .  A
C1523      C1524   1.404       .  A
C1523      F1528   1.357       .  S
C1524      C1525   1.403       .  A
C1524      H1529   1.083       .  S
C1525      C1526   1.408       .  A
C1526      F1530   1.358   1_545  S
C1527      C1532   1.402       .  A
C1527      C1536   1.405       .  A
C1532      C1533   1.399       .  A
C1532      F1537   1.357       .  S
C1533      C1534   1.410       .  A
C1533      H1538   1.083       .  S
C1534      C1535   1.409       .  A
C1535      C1536   1.401       .  A
C1535      F1539   1.357       .  S
C1536      H1540   1.084       .  S
C1541      C1542   1.403       .  A
C1541      C1546   1.396       .  A
C1541      H1551   1.083       .  S
C1542      C1547   1.486       .  S
C1542      C1543   1.409       .  A
C1543      C1544   1.405       .  A
C1543      F1548   1.357       .  S
C1544      C1545   1.404       .  A
C1544      H1549   1.083       .  S
C1545      C1546   1.408       .  A
C1546      F1550   1.358   1_545  S
C1547      C1552   1.409       .  A
C1547      C1556   1.401       .  A
C1552      C1553   1.400       .  A
C1552      F1557   1.357       .  S
C1553      C1554   1.404       .  A
C1553      H1558   1.083       .  S
C1554      C1555   1.415       .  A
C1555      C1556   1.401       .  A
C1555      F1559   1.358       .  S
C1556      H1560   1.083       .  S
C1561      C1562   1.404       .  A
C1561      C1566   1.400       .  A
C1561      H1571   1.083       .  S
C1562      C1567   1.477       .  S
C1562      C1563   1.403       .  A
C1563      C1564   1.398       .  A
C1563      F1568   1.358       .  S
C1564      C1565   1.405       .  A
C1564      H1569   1.083       .  S
C1565      C1566   1.404       .  A
C1566      F1570   1.357       .  S
C1567      C1572   1.399       .  A
C1567      C1576   1.404       .  A
C1572      C1573   1.397       .  A
C1572      F1577   1.357       .  S
C1573      C1574   1.411       .  A
C1573      H1578   1.083       .  S
C1574      C1575   1.411       .  A
C1575      C1576   1.402       .  A
C1575      F1579   1.357       .  S
C1576      H1580   1.084       .  S
C1581      C1582   1.407       .  A
C1581      C1586   1.406       .  A
C1581      H1591   1.083       .  S
C1582      C1587   1.490       .  S
C1582      C1583   1.406       .  A
C1583      C1584   1.399       .  A
C1583      F1588   1.358       .  S
C1584      C1585   1.407       .  A
C1584      H1589   1.083       .  S
C1585      C1586   1.406       .  A
C1586      F1590   1.357       .  S
C1587      C1592   1.404       .  A
C1587      C1596   1.406       .  A
C1592      C1593   1.403       .  A
C1592      F1597   1.357       .  S
C1593      C1594   1.412       .  A
C1593      H1598   1.083       .  S
C1594      C1595   1.411       .  A
C1595      C1596   1.402       .  A
C1595      F1599   1.357       .  S
C1596      H1600   1.083       .  S
C1601      C1602   1.402       .  A
C1601      C1606   1.401       .  A
C1601      H1611   1.084       .  S
C1602      C1607   1.487       .  S
C1602      C1603   1.410       .  A
C1603      C1604   1.400       .  A
C1603      F1608   1.357       .  S
C1604      C1605   1.405       .  A
C1604      H1609   1.084       .  S
C1605      C1606   1.414       .  A
C1606      F1610   1.357       .  S
C1607      C1612   1.405       .  A
C1607      C1616   1.408       .  A
C1612      C1613   1.398       .  A
C1612      F1617   1.358       .  S
C1613      C1614   1.407       .  A
C1613      H1618   1.084       .  S
C1614      C1615   1.406       .  A
C1615      C1616   1.404       .  A
C1615      F1619   1.357       .  S
C1616      H1620   1.083       .  S
C1621      C1622   1.402       .  A
C1621      C1626   1.401   1_565  A
C1621      H1631   1.083       .  S
C1622      C1627   1.489       .  S
C1622      C1623   1.410   1_565  A
C1623      C1624   1.401       .  A
C1623      F1628   1.358       .  S
C1624      C1625   1.406       .  A
C1624      H1629   1.083       .  S
C1625      C1626   1.415       .  A
C1626      F1630   1.357       .  S
C1627      C1632   1.405       .  A
C1627      C1636   1.408       .  A
C1632      C1633   1.397       .  A
C1632      F1637   1.358       .  S
C1633      C1634   1.407       .  A
C1633      H1638   1.084       .  S
C1634      C1635   1.405       .  A
C1635      C1636   1.405       .  A
C1635      F1639   1.357       .  S
C1636      H1640   1.083       .  S
C1641      C1642   1.402       .  A
C1641      C1646   1.397       .  A
C1641      H1651   1.084       .  S
C1642      C1647   1.475       .  S
C1642      C1643   1.401       .  A
C1643      C1644   1.400       .  A
C1643      F1648   1.357       .  S
C1644      C1645   1.410       .  A
C1644      H1649   1.083       .  S
C1645      C1646   1.411       .  A
C1646      F1650   1.358       .  S
C1647      C1652   1.406       .  A
C1647      C1656   1.401       .  A
C1652      C1653   1.401       .  A
C1652      F1657   1.357       .  S
C1653      C1654   1.403       .  A
C1653      H1658   1.083       .  S
C1654      C1655   1.407       .  A
C1655      C1656   1.396       .  A
C1655      F1659   1.358       .  S
C1656      H1660   1.083       .  S
C1661      C1662   1.402       .  A
C1661      C1666   1.401       .  A
C1661      H1671   1.084       .  S
C1662      C1667   1.489       .  S
C1662      C1663   1.410       .  A
C1663      C1664   1.399       .  A
C1663      F1668   1.357       .  S
C1664      C1665   1.404       .  A
C1664      H1669   1.083       .  S
C1665      C1666   1.415       .  A
C1666      F1670   1.358       .  S
C1667      C1672   1.407       .  A
C1667      C1676   1.408       .  A
C1672      C1673   1.397       .  A
C1672      F1677   1.358       .  S
C1673      C1674   1.404       .  A
C1673      H1678   1.083       .  S
C1674      C1675   1.404       .  A
C1675      C1676   1.403       .  A
C1675      F1679   1.357       .  S
C1676      H1680   1.083       .  S
C1681      C1682   1.406       .  A
C1681      C1686   1.404       .  A
C1681      H1691   1.083       .  S
C1682      C1687   1.484       .  S
C1682      C1683   1.403       .  A
C1683      C1684   1.397   1_455  A
C1683      F1688   1.357   1_455  S
C1684      C1685   1.406   1_655  A
C1684      H1689   1.084       .  S
C1685      C1686   1.407       .  A
C1686      F1690   1.357       .  S
C1687      C1692   1.407       .  A
C1687      C1696   1.400       .  A
C1692      C1693   1.401       .  A
C1692      F1697   1.358       .  S
C1693      C1694   1.407       .  A
C1693      H1698   1.083       .  S
C1694      C1695   1.415       .  A
C1695      C1696   1.402       .  A
C1695      F1699   1.357       .  S
C1696      H1700   1.084       .  S
C1701      C1702   1.405       .  A
C1701      C1706   1.401       .  A
C1701      H1711   1.083       .  S
C1702      C1707   1.482       .  S
C1702      C1703   1.401       .  A
C1703      C1704   1.401       .  A
C1703      F1708   1.357       .  S
C1704      C1705   1.413       .  A
C1704      H1709   1.083       .  S
C1705      C1706   1.409       .  A
C1706      F1710   1.357       .  S
C1707      C1712   1.402       .  A
C1707      C1716   1.407       .  A
C1712      C1713   1.395       .  A
C1712      F1717   1.358       .  S
C1713      C1714   1.406       .  A
C1713      H1718   1.084       .  S
C1714      C1715   1.407       .  A
C1715      C1716   1.407       .  A
C1715      F1719   1.357       .  S
C1716      H1720   1.083       .  S
C1721      C1722   1.406       .  A
C1721      C1726   1.401       .  A
C1721      H1731   1.083       .  S
C1722      C1727   1.482       .  S
C1722      C1723   1.402       .  A
C1723      C1724   1.397       .  A
C1723      F1728   1.357       .  S
C1724      C1725   1.410       .  A
C1724      H1729   1.083       .  S
C1725      C1726   1.410       .  A
C1726      F1730   1.357       .  S
C1727      C1732   1.403       .  A
C1727      C1736   1.407       .  A
C1732      C1733   1.395       .  A
C1732      F1737   1.358       .  S
C1733      C1734   1.407       .  A
C1733      H1738   1.084       .  S
C1734      C1735   1.406       .  A
C1735      C1736   1.403       .  A
C1735      F1739   1.357       .  S
C1736      H1740   1.083       .  S
C1741      C1742   1.402       .  A
C1741      C1746   1.399       .  A
C1741      H1751   1.084       .  S
C1742      C1747   1.483   1_455  S
C1742      C1743   1.403       .  A
C1743      C1744   1.404       .  A
C1743      F1748   1.357   1_455  S
C1744      C1745   1.412       .  A
C1744      H1749   1.083       .  S
C1745      C1746   1.412       .  A
C1746      F1750   1.357       .  S
C1747      C1752   1.408       .  A
C1747      C1756   1.401       .  A
C1752      C1753   1.406       .  A
C1752      F1757   1.357       .  S
C1753      C1754   1.404       .  A
C1753      H1758   1.083       .  S
C1754      C1755   1.408       .  A
C1755      C1756   1.397       .  A
C1755      F1759   1.358       .  S
C1756      H1760   1.083       .  S
C1761      C1762   1.408       .  A
C1761      C1766   1.402       .  A
C1761      H1771   1.083       .  S
C1762      C1767   1.491       .  S
C1762      C1763   1.408       .  A
C1763      C1764   1.398       .  A
C1763      F1768   1.358       .  S
C1764      C1765   1.405       .  A
C1764      H1769   1.084       .  S
C1765      C1766   1.405       .  A
C1766      F1770   1.357       .  S
C1767      C1772   1.406       .  A
C1767      C1776   1.407   1_545  A
C1772      C1773   1.401   1_545  A
C1772      F1777   1.357       .  S
C1773      C1774   1.410       .  A
C1773      H1778   1.083       .  S
C1774      C1775   1.407       .  A
C1775      C1776   1.399       .  A
C1775      F1779   1.357       .  S
C1776      H1780   1.083       .  S
C1781      C1782   1.409       .  A
C1781      C1786   1.399       .  A
C1781      H1791   1.083       .  S
C1782      C1787   1.493       .  S
C1782      C1783   1.409       .  A
C1783      C1784   1.400       .  A
C1783      F1788   1.357       .  S
C1784      C1785   1.404       .  A
C1784      H1789   1.083   1_455  S
C1785      C1786   1.402       .  A
C1786      F1790   1.358       .  S
C1787      C1792   1.406       .  A
C1787      C1796   1.410       .  A
C1792      C1793   1.397       .  A
C1792      F1797   1.358       .  S
C1793      C1794   1.410       .  A
C1793      H1798   1.083       .  S
C1794      C1795   1.408       .  A
C1795      C1796   1.403       .  A
C1795      F1799   1.357       .  S
C1796      H1800   1.082       .  S
C1801      C1802   1.406       .  A
C1801      C1806   1.401       .  A
C1801      H1811   1.083       .  S
C1802      C1807   1.492       .  S
C1802      C1803   1.410       .  A
C1803      C1804   1.401       .  A
C1803      F1808   1.357       .  S
C1804      C1805   1.402       .  A
C1804      H1809   1.083       .  S
C1805      C1806   1.406       .  A
C1806      F1810   1.358       .  S
C1807      C1812   1.409       .  A
C1807      C1816   1.404       .  A
C1812      C1813   1.402       .  A
C1812      F1817   1.358       .  S
C1813      C1814   1.408       .  A
C1813      H1818   1.083       .  S
C1814      C1815   1.413       .  A
C1815      C1816   1.402       .  A
C1815      F1819   1.357       .  S
C1816      H1820   1.083       .  S
C1821      C1822   1.406       .  A
C1821      C1826   1.395       .  A
C1821      H1831   1.082       .  S
C1822      C1827   1.501       .  S
C1822      C1823   1.416       .  A
C1823      C1824   1.407       .  A
C1823      F1828   1.357       .  S
C1824      C1825   1.402       .  A
C1824      H1829   1.083       .  S
C1825      C1826   1.409       .  A
C1826      F1830   1.359       .  S
C1827      C1832   1.414       .  A
C1827      C1836   1.410       .  A
C1832      C1833   1.400       .  A
C1832      F1837   1.357       .  S
C1833      C1834   1.403       .  A
C1833      H1838   1.084       .  S
C1834      C1835   1.404       .  A
C1835      C1836   1.402       .  A
C1835      F1839   1.357       .  S
C1836      H1840   1.082       .  S
C1841      C1842   1.407       .  A
C1841      C1846   1.397       .  A
C1841      H1851   1.083       .  S
C1842      C1847   1.489       .  S
C1842      C1843   1.411       .  A
C1843      C1844   1.400       .  A
C1843      F1848   1.357       .  S
C1844      C1845   1.402       .  A
C1844      H1849   1.083   1_565  S
C1845      C1846   1.402       .  A
C1846      F1850   1.358       .  S
C1847      C1852   1.410       .  A
C1847      C1856   1.405       .  A
C1852      C1853   1.398       .  A
C1852      F1857   1.357       .  S
C1853      C1854   1.406       .  A
C1853      H1858   1.083       .  S
C1854      C1855   1.411       .  A
C1855      C1856   1.399       .  A
C1855      F1859   1.357       .  S
C1856      H1860   1.083       .  S
C1861      C1862   1.401       .  A
C1861      C1866   1.399   1_545  A
C1861      H1871   1.083       .  S
C1862      C1867   1.489       .  S
C1862      C1863   1.409   1_545  A
C1863      C1864   1.404       .  A
C1863      F1868   1.357       .  S
C1864      C1865   1.406       .  A
C1864      H1869   1.083       .  S
C1865      C1866   1.416       .  A
C1866      F1870   1.358       .  S
C1867      C1872   1.410       .  A
C1867      C1876   1.404       .  A
C1872      C1873   1.402       .  A
C1872      F1877   1.357       .  S
C1873      C1874   1.402       .  A
C1873      H1878   1.083       .  S
C1874      C1875   1.406       .  A
C1875      C1876   1.400       .  A
C1875      F1879   1.357       .  S
C1876      H1880   1.083       .  S
C1881      C1882   1.402       .  A
C1881      C1886   1.398       .  A
C1881      H1891   1.083       .  S
C1882      C1887   1.491       .  S
C1882      C1883   1.411       .  A
C1883      C1884   1.404       .  A
C1883      F1888   1.358       .  S
C1884      C1885   1.406       .  A
C1884      H1889   1.083       .  S
C1885      C1886   1.412       .  A
C1886      F1890   1.357       .  S
C1887      C1892   1.411       .  A
C1887      C1896   1.404       .  A
C1892      C1893   1.403       .  A
C1892      F1897   1.357       .  S
C1893      C1894   1.402       .  A
C1893      H1898   1.083       .  S
C1894      C1895   1.410       .  A
C1895      C1896   1.400       .  A
C1895      F1899   1.358       .  S
C1896      H1900   1.083       .  S
C1901      C1902   1.403       .  A
C1901      C1906   1.400       .  A
C1901      H1911   1.083       .  S
C1902      C1907   1.487       .  S
C1902      C1903   1.406       .  A
C1903      C1904   1.404       .  A
C1903      F1908   1.358       .  S
C1904      C1905   1.410       .  A
C1904      H1909   1.083       .  S
C1905      C1906   1.410       .  A
C1906      F1910   1.357       .  S
C1907      C1912   1.406       .  A
C1907      C1916   1.407       .  A
C1912      C1913   1.400       .  A
C1912      F1917   1.357       .  S
C1913      C1914   1.405       .  A
C1913      H1918   1.083       .  S
C1914      C1915   1.404       .  A
C1915      C1916   1.403       .  A
C1915      F1919   1.357       .  S
C1916      H1920   1.083       .  S
C1921      C1922   1.405       .  A
C1921      C1926   1.401       .  A
C1921      H1931   1.083       .  S
C1922      C1927   1.481       .  S
C1922      C1923   1.401       .  A
C1923      C1924   1.399       .  A
C1923      F1928   1.358       .  S
C1924      C1925   1.411       .  A
C1924      H1929   1.083       .  S
C1925      C1926   1.409       .  A
C1926      F1930   1.357       .  S
C1927      C1932   1.405       .  A
C1927      C1936   1.405       .  A
C1932      C1933   1.399       .  A
C1932      F1937   1.358       .  S
C1933      C1934   1.405       .  A
C1933      H1938   1.084       .  S
C1934      C1935   1.404       .  A
C1935      C1936   1.400       .  A
C1935      F1939   1.357       .  S
C1936      H1940   1.083       .  S
C1941      C1942   1.401       .  A
C1941      C1946   1.397       .  A
C1941      H1951   1.084       .  S
C1942      C1947   1.483       .  S
C1942      C1943   1.409       .  A
C1943      C1944   1.399       .  A
C1943      F1948   1.357       .  S
C1944      C1945   1.404       .  A
C1944      H1949   1.083       .  S
C1945      C1946   1.413       .  A
C1946      F1950   1.358       .  S
C1947      C1952   1.406       .  A
C1947      C1956   1.407       .  A
C1952      C1953   1.395       .  A
C1952      F1957   1.358       .  S
C1953      C1954   1.403       .  A
C1953      H1958   1.084   1_455  S
C1954      C1955   1.404       .  A
C1955      C1956   1.401       .  A
C1955      F1959   1.357       .  S
C1956      H1960   1.083       .  S
C1961      C1962   1.406       .  A
C1961      C1966   1.401       .  A
C1961      H1971   1.083       .  S
C1962      C1967   1.482       .  S
C1962      C1963   1.405       .  A
C1963      C1964   1.397       .  A
C1963      F1968   1.357       .  S
C1964      C1965   1.403       .  A
C1964      H1969   1.084   1_455  S
C1965      C1966   1.404       .  A
C1966      F1970   1.358       .  S
C1967      C1972   1.401       .  A
C1967      C1976   1.406   1_556  A
C1972      C1973   1.397   1_556  A
C1972      F1977   1.357       .  S
C1973      C1974   1.411       .  A
C1973      H1978   1.083       .  S
C1974      C1975   1.409       .  A
C1975      C1976   1.401       .  A
C1975      F1979   1.357       .  S
C1976      H1980   1.083       .  S
C1981      C1982   1.406       .  A
C1981      C1986   1.400       .  A
C1981      H1991   1.083       .  S
C1982      C1987   1.486       .  S
C1982      C1983   1.404       .  A
C1983      C1984   1.401       .  A
C1983      F1988   1.357       .  S
C1984      C1985   1.410       .  A
C1984      H1989   1.083       .  S
C1985      C1986   1.409       .  A
C1986      F1990   1.357       .  S
C1987      C1992   1.409       .  A
C1987      C1996   1.404       .  A
C1992      C1993   1.403       .  A
C1992      F1997   1.357       .  S
C1993      C1994   1.404       .  A
C1993      H1998   1.083       .  S
C1994      C1995   1.404       .  A
C1995      C1996   1.397       .  A
C1995      F1999   1.358   1_565  S
C1996      H2000   1.083       .  S
C2001      C2002   1.401       .  A
C2001      C2006   1.397       .  A
C2001      H2011   1.083       .  S
C2002      C2007   1.486       .  S
C2002      C2003   1.409       .  A
C2003      C2004   1.400       .  A
C2003      F2008   1.357       .  S
C2004      C2005   1.406       .  A
C2004      H2009   1.083       .  S
C2005      C2006   1.414       .  A
C2006      F2010   1.358       .  S
C2007      C2012   1.408       .  A
C2007      C2016   1.406       .  A
C2012      C2013   1.398       .  A
C2012      F2017   1.357       .  S
C2013      C2014   1.402       .  A
C2013      H2018   1.083       .  S
C2014      C2015   1.404       .  A
C2015      C2016   1.399       .  A
C2015      F2019   1.358       .  S
C2016      H2020   1.083       .  S
C2021      C2022   1.403       .  A
C2021      C2026   1.396       .  A
C2021      H2031   1.083       .  S
C2022      C2027   1.481       .  S
C2022      C2023   1.408       .  A
C2023      C2024   1.401       .  A
C2023      F2028   1.358       .  S
C2024      C2025   1.402       .  A
C2024      H2029   1.083       .  S
C2025      C2026   1.405       .  A
C2026      F2030   1.357   1_554  S
C2027      C2032   1.408   1_565  A
C2027      C2036   1.400       .  A
C2032      C2033   1.399       .  A
C2032      F2037   1.358       .  S
C2033      C2034   1.405       .  A
C2033      H2038   1.083       .  S
C2034      C2035   1.413       .  A
C2035      C2036   1.398   1_545  A
C2035      F2039   1.357       .  S
C2036      H2040   1.083       .  S
C2041      C2042   1.404       .  A
C2041      C2046   1.397       .  A
C2041      H2051   1.083       .  S
C2042      C2047   1.487       .  S
C2042      C2043   1.410       .  A
C2043      C2044   1.398       .  A
C2043      F2048   1.357       .  S
C2044      C2045   1.405       .  A
C2044      H2049   1.083       .  S
C2045      C2046   1.411       .  A
C2046      F2050   1.358       .  S
C2047      C2052   1.410       .  A
C2047      C2056   1.406       .  A
C2052      C2053   1.398       .  A
C2052      F2057   1.357       .  S
C2053      C2054   1.401       .  A
C2053      H2058   1.083       .  S
C2054      C2055   1.402       .  A
C2055      C2056   1.397       .  A
C2055      F2059   1.358       .  S
C2056      H2060   1.083       .  S
C2061      C2062   1.409       .  A
C2061      C2066   1.401       .  A
C2061      H2071   1.083       .  S
C2062      C2067   1.489   1_655  S
C2062      C2063   1.408       .  A
C2063      C2064   1.398   1_565  A
C2063      F2068   1.357   1_565  S
C2064      C2065   1.403   1_545  A
C2064      H2069   1.084       .  S
C2065      C2066   1.403       .  A
C2066      F2070   1.357       .  S
C2067      C2072   1.406       .  A
C2067      C2076   1.407       .  A
C2072      C2073   1.399       .  A
C2072      F2077   1.358   1_455  S
C2073      C2074   1.410       .  A
C2073      H2078   1.083       .  S
C2074      C2075   1.408       .  A
C2075      C2076   1.400       .  A
C2075      F2079   1.357       .  S
C2076      H2080   1.083       .  S
C2081      C2082   1.405       .  A
C2081      C2086   1.401       .  A
C2081      H2091   1.083       .  S
C2082      C2087   1.483   1_655  S
C2082      C2083   1.408       .  A
C2083      C2084   1.399       .  A
C2083      F2088   1.357       .  S
C2084      C2085   1.401       .  A
C2084      H2089   1.084       .  S
C2085      C2086   1.406       .  A
C2086      F2090   1.357   1_545  S
C2087      C2092   1.407       .  A
C2087      C2096   1.401   1_455  A
C2092      C2093   1.402       .  A
C2092      F2097   1.357       .  S
C2093      C2094   1.408       .  A
C2093      H2098   1.083       .  S
C2094      C2095   1.414       .  A
C2095      C2096   1.398   1_455  A
C2095      F2099   1.357       .  S
C2096      H2100   1.083       .  S
C2101      C2102   1.403       .  A
C2101      C2106   1.396   1_565  A
C2101      H2111   1.083   1_565  S
C2102      C2107   1.483       .  S
C2102      C2103   1.409       .  A
C2103      C2104   1.401       .  A
C2103      F2108   1.357       .  S
C2104      C2105   1.402       .  A
C2104      H2109   1.083       .  S
C2105      C2106   1.406   1_565  A
C2106      F2110   1.358       .  S
C2107      C2112   1.409       .  A
C2107      C2116   1.402       .  A
C2112      C2113   1.399       .  A
C2112      F2117   1.358       .  S
C2113      C2114   1.404       .  A
C2113      H2118   1.083       .  S
C2114      C2115   1.411       .  A
C2115      C2116   1.398       .  A
C2115      F2119   1.358       .  S
C2116      H2120   1.083       .  S
C2121      C2122   1.403       .  A
C2121      C2126   1.400   1_565  A
C2121      H2131   1.083       .  S
C2122      C2127   1.489       .  S
C2122      C2123   1.409   1_565  A
C2123      C2124   1.402       .  A
C2123      F2128   1.358       .  S
C2124      C2125   1.406       .  A
C2124      H2129   1.083       .  S
C2125      C2126   1.412       .  A
C2126      F2130   1.357       .  S
C2127      C2132   1.410       .  A
C2127      C2136   1.403   1_556  A
C2132      C2133   1.403       .  A
C2132      F2137   1.357       .  S
C2133      C2134   1.403       .  A
C2133      H2138   1.083       .  S
C2134      C2135   1.410   1_556  A
C2135      C2136   1.400       .  A
C2135      F2139   1.358       .  S
C2136      H2140   1.083       .  S
C2141      C2142   1.407       .  A
C2141      C2146   1.402       .  A
C2141      H2151   1.083       .  S
C2142      C2147   1.490       .  S
C2142      C2143   1.405       .  A
C2143      C2144   1.400       .  A
C2143      F2148   1.357       .  S
C2144      C2145   1.410       .  A
C2144      H2149   1.083       .  S
C2145      C2146   1.409       .  A
C2146      F2150   1.357       .  S
C2147      C2152   1.409       .  A
C2147      C2156   1.406       .  A
C2152      C2153   1.403       .  A
C2152      F2157   1.357       .  S
C2153      C2154   1.405       .  A
C2153      H2158   1.083       .  S
C2154      C2155   1.404       .  A
C2155      C2156   1.400       .  A
C2155      F2159   1.357   1_556  S
C2156      H2160   1.083       .  S
C2161      C2162   1.403       .  A
C2161      C2166   1.400   1_554  A
C2161      H2171   1.083       .  S
C2162      C2167   1.488       .  S
C2162      C2163   1.410   1_554  A
C2163      C2164   1.399       .  A
C2163      F2168   1.357       .  S
C2164      C2165   1.403       .  A
C2164      H2169   1.083       .  S
C2165      C2166   1.410       .  A
C2166      F2170   1.358       .  S
C2167      C2172   1.410       .  A
C2167      C2176   1.404       .  A
C2172      C2173   1.402       .  A
C2172      F2177   1.357       .  S
C2173      C2174   1.403       .  A
C2173      H2178   1.083       .  S
C2174      C2175   1.407       .  A
C2175      C2176   1.397       .  A
C2175      F2179   1.358       .  S
C2176      H2180   1.083       .  S
C2181      C2182   1.409       .  A
C2181      C2186   1.403       .  A
C2181      H2191   1.083       .  S
C2182      C2187   1.495       .  S
C2182      C2183   1.411       .  A
C2183      C2184   1.398       .  A
C2183      F2188   1.357       .  S
C2184      C2185   1.402       .  A
C2184      H2189   1.084       .  S
C2185      C2186   1.407       .  A
C2186      F2190   1.357       .  S
C2187      C2192   1.414       .  A
C2187      C2196   1.405       .  A
C2192      C2193   1.407       .  A
C2192      F2197   1.357       .  S
C2193      C2194   1.404       .  A
C2193      H2198   1.083       .  S
C2194      C2195   1.406       .  A
C2195      C2196   1.393       .  A
C2195      F2199   1.358   1_545  S
C2196      H2200   1.083       .  S
C2201      C2202   1.409       .  A
C2201      C2206   1.404       .  A
C2201      H2211   1.083       .  S
C2202      C2207   1.492       .  S
C2202      C2203   1.405       .  A
C2203      C2204   1.399       .  A
C2203      F2208   1.358       .  S
C2204      C2205   1.411       .  A
C2204      H2209   1.083       .  S
C2205      C2206   1.409       .  A
C2206      F2210   1.357       .  S
C2207      C2212   1.408       .  A
C2207      C2216   1.409       .  A
C2212      C2213   1.399       .  A
C2212      F2217   1.357   1_545  S
C2213      C2214   1.405       .  A
C2213      H2218   1.084   1_545  S
C2214      C2215   1.403       .  A
C2215      C2216   1.401       .  A
C2215      F2219   1.357       .  S
C2216      H2220   1.083       .  S
C2221      C2222   1.403       .  A
C2221      C2226   1.398       .  A
C2221      H2231   1.083       .  S
C2222      C2227   1.483       .  S
C2222      C2223   1.408       .  A
C2223      C2224   1.401       .  A
C2223      F2228   1.358       .  S
C2224      C2225   1.406       .  A
C2224      H2229   1.083       .  S
C2225      C2226   1.408       .  A
C2226      F2230   1.357       .  S
C2227      C2232   1.409       .  A
C2227      C2236   1.401       .  A
C2232      C2233   1.404       .  A
C2232      F2237   1.357       .  S
C2233      C2234   1.403       .  A
C2233      H2238   1.083       .  S
C2234      C2235   1.411       .  A
C2235      C2236   1.395       .  A
C2235      F2239   1.358       .  S
C2236      H2240   1.084       .  S
C2241      C2242   1.399       .  A
C2241      C2246   1.398       .  A
C2241      H2251   1.083       .  S
C2242      C2247   1.481       .  S
C2242      C2243   1.408       .  A
C2243      C2244   1.400       .  A
C2243      F2248   1.358       .  S
C2244      C2245   1.405       .  A
C2244      H2249   1.083       .  S
C2245      C2246   1.416       .  A
C2246      F2250   1.357       .  S
C2247      C2252   1.408       .  A
C2247      C2256   1.402       .  A
C2252      C2253   1.403       .  A
C2252      F2257   1.357       .  S
C2253      C2254   1.403       .  A
C2253      H2258   1.083       .  S
C2254      C2255   1.408       .  A
C2255      C2256   1.396       .  A
C2255      F2259   1.358       .  S
C2256      H2260   1.083       .  S
C2261      C2262   1.403       .  A
C2261      C2266   1.403   1_554  A
C2261      H2271   1.083       .  S
C2262      C2267   1.488       .  S
C2262      C2263   1.408   1_554  A
C2263      C2264   1.399       .  A
C2263      F2268   1.357       .  S
C2264      C2265   1.404       .  A
C2264      H2269   1.083       .  S
C2265      C2266   1.415       .  A
C2266      F2270   1.358       .  S
C2267      C2272   1.410       .  A
C2267      C2276   1.403       .  A
C2272      C2273   1.406       .  A
C2272      F2277   1.357       .  S
C2273      C2274   1.404       .  A
C2273      H2278   1.083       .  S
C2274      C2275   1.406       .  A
C2275      C2276   1.397       .  A
C2275      F2279   1.358       .  S
C2276      H2280   1.083       .  S
C2281      C2282   1.399       .  A
C2281      C2286   1.400       .  A
C2281      H2291   1.084       .  S
C2282      C2287   1.477       .  S
C2282      C2283   1.405       .  A
C2283      C2284   1.400       .  A
C2283      F2288   1.358       .  S
C2284      C2285   1.405       .  A
C2284      H2289   1.083       .  S
C2285      C2286   1.413       .  A
C2286      F2290   1.357       .  S
C2287      C2292   1.407       .  A
C2287      C2296   1.400       .  A
C2292      C2293   1.404       .  A
C2292      F2297   1.357       .  S
C2293      C2294   1.404       .  A
C2293      H2298   1.083       .  S
C2294      C2295   1.408       .  A
C2295      C2296   1.395       .  A
C2295      F2299   1.358       .  S
C2296      H2300   1.083       .  S
C2301      C2302   1.404       .  A
C2301      C2306   1.399       .  A
C2301      H2311   1.083       .  S
C2302      C2307   1.487       .  S
C2302      C2303   1.409       .  A
C2303      C2304   1.402       .  A
C2303      F2308   1.357       .  S
C2304      C2305   1.403       .  A
C2304      H2309   1.083       .  S
C2305      C2306   1.408       .  A
C2306      F2310   1.358       .  S
C2307      C2312   1.409       .  A
C2307      C2316   1.402       .  A
C2312      C2313   1.402       .  A
C2312      F2317   1.358       .  S
C2313      C2314   1.406       .  A
C2313      H2318   1.083       .  S
C2314      C2315   1.412       .  A
C2315      C2316   1.400       .  A
C2315      F2319   1.357       .  S
C2316      H2320   1.083       .  S
C2321      C2322   1.407       .  A
C2321      C2326   1.399       .  A
C2321      H2331   1.083       .  S
C2322      C2327   1.487       .  S
C2322      C2323   1.407       .  A
C2323      C2324   1.399       .  A
C2323      F2328   1.357       .  S
C2324      C2325   1.405       .  A
C2324      H2329   1.083       .  S
C2325      C2326   1.403       .  A
C2326      F2330   1.357       .  S
C2327      C2332   1.403       .  A
C2327      C2336   1.409       .  A
C2332      C2333   1.395       .  A
C2332      F2337   1.357       .  S
C2333      C2334   1.409       .  A
C2333      H2338   1.083       .  S
C2334      C2335   1.408       .  A
C2335      C2336   1.404       .  A
C2335      F2339   1.357       .  S
C2336      H2340   1.083       .  S
C2341      C2342   1.406       .  A
C2341      C2346   1.402       .  A
C2341      H2351   1.083       .  S
C2342      C2347   1.480       .  S
C2342      C2343   1.404   1_556  A
C2343      C2344   1.396       .  A
C2343      F2348   1.358       .  S
C2344      C2345   1.406   1_554  A
C2344      H2349   1.084       .  S
C2345      C2346   1.405       .  A
C2346      F2350   1.357       .  S
C2347      C2352   1.402       .  A
C2347      C2356   1.404       .  A
C2352      C2353   1.400       .  A
C2352      F2357   1.357       .  S
C2353      C2354   1.411       .  A
C2353      H2358   1.083       .  S
C2354      C2355   1.409       .  A
C2355      C2356   1.398       .  A
C2355      F2359   1.357       .  S
C2356      H2360   1.084       .  S
C2361      C2362   1.404       .  A
C2361      C2366   1.400   1_556  A
C2361      H2371   1.083       .  S
C2362      C2367   1.493       .  S
C2362      C2363   1.411   1_556  A
C2363      C2364   1.401       .  A
C2363      F2368   1.357       .  S
C2364      C2365   1.407       .  A
C2364      H2369   1.083       .  S
C2365      C2366   1.413       .  A
C2366      F2370   1.357       .  S
C2367      C2372   1.412       .  A
C2367      C2376   1.405       .  A
C2372      C2373   1.402       .  A
C2372      F2377   1.357       .  S
C2373      C2374   1.401       .  A
C2373      H2378   1.083       .  S
C2374      C2375   1.407   1_655  A
C2375      C2376   1.399   1_455  A
C2375      F2379   1.358       .  S
C2376      H2380   1.083   1_655  S
C2381      C2382   1.407       .  A
C2381      C2386   1.402       .  A
C2381      H2391   1.083       .  S
C2382      C2387   1.485       .  S
C2382      C2383   1.403       .  A
C2383      C2384   1.396       .  A
C2383      F2388   1.357       .  S
C2384      C2385   1.410       .  A
C2384      H2389   1.083       .  S
C2385      C2386   1.409       .  A
C2386      F2390   1.357       .  S
C2387      C2392   1.409       .  A
C2387      C2396   1.405       .  A
C2392      C2393   1.398       .  A
C2392      F2397   1.357       .  S
C2393      C2394   1.402       .  A
C2393      H2398   1.083       .  S
C2394      C2395   1.403       .  A
C2395      C2396   1.398       .  A
C2395      F2399   1.357   1_655  S
C2396      H2400   1.083       .  S
C2401      C2402   1.407   1_655  A
C2401      C2406   1.401       .  A
C2401      H2411   1.083       .  S
C2402      C2407   1.485       .  S
C2402      C2403   1.403       .  A
C2403      C2404   1.397   1_455  A
C2403      F2408   1.358       .  S
C2404      C2405   1.410       .  A
C2404      H2409   1.083       .  S
C2405      C2406   1.408       .  A
C2406      F2410   1.357       .  S
C2407      C2412   1.406       .  A
C2407      C2416   1.407       .  A
C2412      C2413   1.399       .  A
C2412      F2417   1.357       .  S
C2413      C2414   1.403       .  A
C2413      H2418   1.084       .  S
C2414      C2415   1.403       .  A
C2415      C2416   1.399       .  A
C2415      F2419   1.357       .  S
C2416      H2420   1.083       .  S
C2421      C2422   1.406       .  A
C2421      C2426   1.400       .  A
C2421      H2431   1.083       .  S
C2422      C2427   1.487       .  S
C2422      C2423   1.408       .  A
C2423      C2424   1.400       .  A
C2423      F2428   1.357       .  S
C2424      C2425   1.402       .  A
C2424      H2429   1.083       .  S
C2425      C2426   1.404       .  A
C2426      F2430   1.358       .  S
C2427      C2432   1.409       .  A
C2427      C2436   1.402       .  A
C2432      C2433   1.401       .  A
C2432      F2437   1.357       .  S
C2433      C2434   1.406       .  A
C2433      H2438   1.083       .  S
C2434      C2435   1.415       .  A
C2435      C2436   1.399       .  A
C2435      F2439   1.358       .  S
C2436      H2440   1.083       .  S
C2441      C2442   1.403       .  A
C2441      C2446   1.399       .  A
C2441      H2451   1.083       .  S
C2442      C2447   1.494       .  S
C2442      C2443   1.412       .  A
C2443      C2444   1.403       .  A
C2443      F2448   1.357       .  S
C2444      C2445   1.406       .  A
C2444      H2449   1.083       .  S
C2445      C2446   1.414       .  A
C2446      F2450   1.358       .  S
C2447      C2452   1.413       .  A
C2447      C2456   1.407       .  A
C2452      C2453   1.401       .  A
C2452      F2457   1.357       .  S
C2453      C2454   1.401       .  A
C2453      H2458   1.084       .  S
C2454      C2455   1.405       .  A
C2455      C2456   1.400       .  A
C2455      F2459   1.358   1_554  S
C2456      H2460   1.083   1_554  S
C2461      C2462   1.405       .  A
C2461      C2466   1.402       .  A
C2461      H2471   1.083       .  S
C2462      C2467   1.486       .  S
C2462      C2463   1.407       .  A
C2463      C2464   1.401       .  A
C2463      F2468   1.358       .  S
C2464      C2465   1.405       .  A
C2464      H2469   1.083       .  S
C2465      C2466   1.405       .  A
C2466      F2470   1.357       .  S
C2467      C2472   1.403       .  A
C2467      C2476   1.407       .  A
C2472      C2473   1.397       .  A
C2472      F2477   1.357       .  S
C2473      C2474   1.410       .  A
C2473      H2478   1.083       .  S
C2474      C2475   1.410       .  A
C2475      C2476   1.404       .  A
C2475      F2479   1.357       .  S
C2476      H2480   1.083       .  S
C2481      C2482   1.408       .  A
C2481      C2486   1.405       .  A
C2481      H2491   1.083       .  S
C2482      C2487   1.487       .  S
C2482      C2483   1.405       .  A
C2483      C2484   1.395       .  A
C2483      F2488   1.358       .  S
C2484      C2485   1.407       .  A
C2484      H2489   1.084       .  S
C2485      C2486   1.405       .  A
C2486      F2490   1.357       .  S
C2487      C2492   1.404       .  A
C2487      C2496   1.406       .  A
C2492      C2493   1.401       .  A
C2492      F2497   1.357       .  S
C2493      C2494   1.409       .  A
C2493      H2498   1.083       .  S
C2494      C2495   1.409       .  A
C2495      C2496   1.400       .  A
C2495      F2499   1.358       .  S
C2496      H2500   1.083       .  S
C2501      C2502   1.397       .  A
C2501      C2506   1.396       .  A
C2501      H2511   1.084       .  S
C2502      C2507   1.471       .  S
C2502      C2503   1.405       .  A
C2503      C2504   1.397       .  A
C2503      F2508   1.358       .  S
C2504      C2505   1.405       .  A
C2504      H2509   1.083       .  S
C2505      C2506   1.414       .  A
C2506      F2510   1.358       .  S
C2507      C2512   1.406       .  A
C2507      C2516   1.400   1_655  A
C2512      C2513   1.399       .  A
C2512      F2517   1.358       .  S
C2513      C2514   1.402       .  A
C2513      H2518   1.083       .  S
C2514      C2515   1.406   1_655  A
C2515      C2516   1.395       .  A
C2515      F2519   1.357       .  S
C2516      H2520   1.083       .  S
C2521      C2522   1.402       .  A
C2521      C2526   1.397       .  A
C2521      H2531   1.084       .  S
C2522      C2527   1.483       .  S
C2522      C2523   1.409       .  A
C2523      C2524   1.402       .  A
C2523      F2528   1.357       .  S
C2524      C2525   1.403       .  A
C2524      H2529   1.083       .  S
C2525      C2526   1.407       .  A
C2526      F2530   1.358       .  S
C2527      C2532   1.409   1_455  A
C2527      C2536   1.400       .  A
C2532      C2533   1.401       .  A
C2532      F2537   1.357       .  S
C2533      C2534   1.404       .  A
C2533      H2538   1.083       .  S
C2534      C2535   1.413       .  A
C2535      C2536   1.399   1_655  A
C2535      F2539   1.358       .  S
C2536      H2540   1.084       .  S
C2541      C2542   1.398       .  A
C2541      C2546   1.399       .  A
C2541      H2551   1.084       .  S
C2542      C2547   1.475       .  S
C2542      C2543   1.404       .  A
C2543      C2544   1.399       .  A
C2543      F2548   1.358       .  S
C2544      C2545   1.407       .  A
C2544      H2549   1.083       .  S
C2545      C2546   1.416       .  A
C2546      F2550   1.357       .  S
C2547      C2552   1.406       .  A
C2547      C2556   1.399       .  A
C2552      C2553   1.403       .  A
C2552      F2557   1.357       .  S
C2553      C2554   1.403       .  A
C2553      H2558   1.083       .  S
C2554      C2555   1.407       .  A
C2555      C2556   1.396       .  A
C2555      F2559   1.358       .  S
C2556      H2560   1.083       .  S
C2561      C2562   1.407       .  A
C2561      C2566   1.401       .  A
C2561      H2571   1.083       .  S
C2562      C2567   1.488       .  S
C2562      C2563   1.404       .  A
C2563      C2564   1.401       .  A
C2563      F2568   1.358       .  S
C2564      C2565   1.412       .  A
C2564      H2569   1.083       .  S
C2565      C2566   1.409       .  A
C2566      F2570   1.357       .  S
C2567      C2572   1.407       .  A
C2567      C2576   1.408       .  A
C2572      C2573   1.398       .  A
C2572      F2577   1.357       .  S
C2573      C2574   1.402       .  A
C2573      H2578   1.084       .  S
C2574      C2575   1.405       .  A
C2575      C2576   1.403       .  A
C2575      F2579   1.357       .  S
C2576      H2580   1.083       .  S
C2581      C2582   1.406       .  A
C2581      C2586   1.404       .  A
C2581      H2591   1.083       .  S
C2582      C2587   1.482       .  S
C2582      C2583   1.400       .  A
C2583      C2584   1.398       .  A
C2583      F2588   1.357       .  S
C2584      C2585   1.410       .  A
C2584      H2589   1.083       .  S
C2585      C2586   1.410       .  A
C2586      F2590   1.357       .  S
C2587      C2592   1.403       .  A
C2587      C2596   1.406       .  A
C2592      C2593   1.399       .  A
C2592      F2597   1.358       .  S
C2593      C2594   1.408       .  A
C2593      H2598   1.084       .  S
C2594      C2595   1.404       .  A
C2595      C2596   1.403       .  A
C2595      F2599   1.357       .  S
C2596      H2600   1.083       .  S
C2601      C2602   1.404       .  A
C2601      C2606   1.402       .  A
C2601      H2611   1.084       .  S
C2602      C2607   1.481       .  S
C2602      C2603   1.400       .  A
C2603      C2604   1.400       .  A
C2603      F2608   1.357       .  S
C2604      C2605   1.411       .  A
C2604      H2609   1.083       .  S
C2605      C2606   1.411       .  A
C2606      F2610   1.357       .  S
C2607      C2612   1.402       .  A
C2607      C2616   1.406       .  A
C2612      C2613   1.397       .  A
C2612      F2617   1.357       .  S
C2613      C2614   1.407       .  A
C2613      H2618   1.084       .  S
C2614      C2615   1.405       .  A
C2615      C2616   1.404       .  A
C2615      F2619   1.357       .  S
C2616      H2620   1.083       .  S
C2621      C2622   1.400       .  A
C2621      C2626   1.400       .  A
C2621      H2631   1.083       .  S
C2622      C2627   1.484       .  S
C2622      C2623   1.407       .  A
C2623      C2624   1.403       .  A
C2623      F2628   1.357       .  S
C2624      C2625   1.408       .  A
C2624      H2629   1.083       .  S
C2625      C2626   1.415       .  A
C2626      F2630   1.357       .  S
C2627      C2632   1.407       .  A
C2627      C2636   1.404       .  A
C2632      C2633   1.401       .  A
C2632      F2637   1.357       .  S
C2633      C2634   1.403       .  A
C2633      H2638   1.083       .  S
C2634      C2635   1.406       .  A
C2635      C2636   1.402       .  A
C2635      F2639   1.357       .  S
C2636      H2640   1.083       .  S
C2641      C2642   1.402       .  A
C2641      C2646   1.404       .  A
C2641      H2651   1.083       .  S
C2642      C2647   1.489       .  S
C2642      C2643   1.407       .  A
C2643      C2644   1.402       .  A
C2643      F2648   1.358       .  S
C2644      C2645   1.408       .  A
C2644      H2649   1.083       .  S
C2645      C2646   1.414       .  A
C2646      F2650   1.357       .  S
C2647      C2652   1.409       .  A
C2647      C2656   1.402       .  A
C2652      C2653   1.406       .  A
C2652      F2657   1.357       .  S
C2653      C2654   1.405       .  A
C2653      H2658   1.083       .  S
C2654      C2655   1.411       .  A
C2655      C2656   1.399       .  A
C2655      F2659   1.358       .  S
C2656      H2660   1.083       .  S
C2661      C2662   1.401       .  A
C2661      C2666   1.399       .  A
C2661      H2671   1.083       .  S
C2662      C2667   1.485       .  S
C2662      C2663   1.408       .  A
C2663      C2664   1.399       .  A
C2663      F2668   1.357       .  S
C2664      C2665   1.405       .  A
C2664      H2669   1.083       .  S
C2665      C2666   1.414       .  A
C2666      F2670   1.358       .  S
C2667      C2672   1.409       .  A
C2667      C2676   1.404       .  A
C2672      C2673   1.402       .  A
C2672      F2677   1.357       .  S
C2673      C2674   1.403       .  A
C2673      H2678   1.083       .  S
C2674      C2675   1.406       .  A
C2675      C2676   1.397       .  A
C2675      F2679   1.358       .  S
C2676      H2680   1.083       .  S
C2681      C2682   1.402       .  A
C2681      C2686   1.399       .  A
C2681      H2691   1.083       .  S
C2682      C2687   1.483       .  S
C2682      C2683   1.407       .  A
C2683      C2684   1.402       .  A
C2683      F2688   1.357       .  S
C2684      C2685   1.403       .  A
C2684      H2689   1.083       .  S
C2685      C2686   1.409       .  A
C2686      F2690   1.358       .  S
C2687      C2692   1.407       .  A
C2687      C2696   1.402       .  A
C2692      C2693   1.400       .  A
C2692      F2697   1.358       .  S
C2693      C2694   1.405       .  A
C2693      H2698   1.084       .  S
C2694      C2695   1.410       .  A
C2695      C2696   1.401       .  A
C2695      F2699   1.357       .  S
C2696      H2700   1.083       .  S
C2701      C2702   1.409       .  A
C2701      C2706   1.404       .  A
C2701      H2711   1.083       .  S
C2702      C2707   1.493       .  S
C2702      C2703   1.408       .  A
C2703      C2704   1.400       .  A
C2703      F2708   1.357       .  S
C2704      C2705   1.404       .  A
C2704      H2709   1.083       .  S
C2705      C2706   1.404       .  A
C2706      F2710   1.357       .  S
C2707      C2712   1.405       .  A
C2707      C2716   1.408       .  A
C2712      C2713   1.402       .  A
C2712      F2717   1.358       .  S
C2713      C2714   1.412       .  A
C2713      H2718   1.083       .  S
C2714      C2715   1.409       .  A
C2715      C2716   1.404       .  A
C2715      F2719   1.357       .  S
C2716      H2720   1.083       .  S
